sim-outorder: SimpleScalar/PISA Tool Set version 3.0 of August, 2003.
Copyright (c) 1994-2003 by Todd M. Austin, Ph.D. and SimpleScalar, LLC.
All Rights Reserved. This version of SimpleScalar is licensed for academic
non-commercial use.  No portion of this work may be used by any commercial
entity, or for any commercial purpose, without the prior written permission
of SimpleScalar, LLC (info@simplescalar.com).


Processor Parameters:
Issue Width: 4
Window Size: 16
Number of Virtual Registers: 32
Number of Physical Registers: 16
Datapath Width: 64
Total Power Consumption: 57.7939
Branch Predictor Power Consumption: 4.52313  (8.11%)
 branch target buffer power (W): 4.16837
 local predict power (W): 0.0879711
 global predict power (W): 0.0996078
 chooser power (W): 0.0702439
 RAS power (W): 0.0969383
Rename Logic Power Consumption: 0.417965  (0.749%)
 Instruction Decode Power (W): 0.0159915
 RAT decode_power (W): 0.113514
 RAT wordline_power (W): 0.0307815
 RAT bitline_power (W): 0.246771
 DCL Comparators (W): 0.0109075
Instruction Window Power Consumption: 2.20432  (3.95%)
 tagdrive (W): 0.0943488
 tagmatch (W): 0.033695
 Selection Logic (W): 0.0134217
 decode_power (W): 0.0532503
 wordline_power (W): 0.0844643
 bitline_power (W): 1.92514
Load/Store Queue Power Consumption: 2.35268  (4.22%)
 tagdrive (W): 0.980932
 tagmatch (W): 0.214841
 decode_power (W): 0.0159915
 wordline_power (W): 0.0433172
 bitline_power (W): 1.0976
Arch. Register File Power Consumption: 3.57247  (6.4%)
 decode_power (W): 0.113514
 wordline_power (W): 0.0844643
 bitline_power (W): 3.37449
Result Bus Power Consumption: 0.885119  (1.59%)
Total Clock Power: 18.2471  (32.7%)
Int ALU Power: 1.16503  (2.09%)
FP ALU Power: 3.57026  (6.4%)
Instruction Cache Power Consumption: 2.21363  (3.97%)
 decode_power (W): 0.779481
 wordline_power (W): 0.028656
 bitline_power (W): 0.886372
 senseamp_power (W): 0.096
 tagarray_power (W): 0.423116
Itlb_power (W): 0.263317 (0.472%)
Data Cache Power Consumption: 10.3661  (18.6%)
 decode_power (W): 1.30211
 wordline_power (W): 0.393471
 bitline_power (W): 5.42471
 senseamp_power (W): 1.536
 tagarray_power (W): 1.70977
Dtlb_power (W): 1.80375 (3.23%)
Level 2 Cache Power Consumption: 4.2091 (7.54%)
 decode_power (W): 0.41817
 wordline_power (W): 0.0430878
 bitline_power (W): 3.0244
 senseamp_power (W): 0.192
 tagarray_power (W): 0.531433
sim: command line: ../sim-outorder -res:fpalu 1 -res:fpmult 1 -res:imult 1 -res:ialu 1 test 

sim: simulation started @ Sun Oct 15 20:13:51 2023, options follow:

sim-outorder: This simulator implements a very detailed out-of-order issue
superscalar processor with a two-level memory system and speculative
execution support.  This simulator is a performance simulator, tracking the
latency of all pipeline operations.

# -config                     # load configuration from a file
# -dumpconfig                 # dump configuration to a file
# -h                    false # print help message    
# -v                    false # verbose operation     
# -d                    false # enable debug message  
# -i                    false # start in Dlite debugger
-seed                       1 # random number generator seed (0 for timer seed)
# -q                    false # initialize and terminate immediately
# -chkpt               <null> # restore EIO trace execution from <fname>
# -redir:sim           <null> # redirect simulator output to file (non-interactive only)
# -redir:prog          <null> # redirect simulated program output to file
-nice                       0 # simulator scheduling priority
-max:inst                   0 # maximum number of inst's to execute
-fastfwd                    0 # number of insts skipped before timing starts
# -ptrace              <null> # generate pipetrace, i.e., <fname|stdout|stderr> <range>
-fetch:ifqsize              4 # instruction fetch queue size (in insts)
-fetch:mplat                3 # extra branch mis-prediction latency
-fetch:speed                1 # speed of front-end of machine relative to execution core
-bpred                  bimod # branch predictor type {nottaken|taken|perfect|bimod|2lev|comb}
-bpred:bimod     2048 # bimodal predictor config (<table size>)
-bpred:2lev      1 1024 8 0 # 2-level predictor config (<l1size> <l2size> <hist_size> <xor>)
-bpred:comb      1024 # combining predictor config (<meta_table_size>)
-bpred:ras                  8 # return address stack size (0 for no return stack)
-bpred:btb       512 4 # BTB config (<num_sets> <associativity>)
# -bpred:spec_update       <null> # speculative predictors update in {ID|WB} (default non-spec)
-decode:width               4 # instruction decode B/W (insts/cycle)
-issue:width                4 # instruction issue B/W (insts/cycle)
-issue:inorder          false # run pipeline with in-order issue
-issue:wrongpath         true # issue instructions down wrong execution paths
-commit:width               4 # instruction commit B/W (insts/cycle)
-ruu:size                  16 # register update unit (RUU) size
-lsq:size                   8 # load/store queue (LSQ) size
-cache:dl1       dl1:128:32:4:l # l1 data cache config, i.e., {<config>|none}
-cache:dl1lat               1 # l1 data cache hit latency (in cycles)
-cache:dl2       ul2:1024:64:4:l # l2 data cache config, i.e., {<config>|none}
-cache:dl2lat               6 # l2 data cache hit latency (in cycles)
-cache:il1       il1:512:32:1:l # l1 inst cache config, i.e., {<config>|dl1|dl2|none}
-cache:il1lat               1 # l1 instruction cache hit latency (in cycles)
-cache:il2                dl2 # l2 instruction cache config, i.e., {<config>|dl2|none}
-cache:il2lat               6 # l2 instruction cache hit latency (in cycles)
-cache:flush            false # flush caches on system calls
-cache:icompress        false # convert 64-bit inst addresses to 32-bit inst equivalents
-mem:lat         18 2 # memory access latency (<first_chunk> <inter_chunk>)
-mem:width                  8 # memory access bus width (in bytes)
-tlb:itlb        itlb:16:4096:4:l # instruction TLB config, i.e., {<config>|none}
-tlb:dtlb        dtlb:32:4096:4:l # data TLB config, i.e., {<config>|none}
-tlb:lat                   30 # inst/data TLB miss latency (in cycles)
-res:ialu                   1 # total number of integer ALU's available
-res:imult                  1 # total number of integer multiplier/dividers available
-res:memport                4 # total number of memory system ports available (to CPU)
-res:fpalu                  1 # total number of floating point ALU's available
-res:fpmult                 1 # total number of floating point multiplier/dividers available
# -pcstat              <null> # profile stat(s) against text addr's (mult uses ok)
-bugcompat              false # operate in backward-compatible bugs mode (for testing only)

  Pipetrace range arguments are formatted as follows:

    {{@|#}<start>}:{{@|#|+}<end>}

  Both ends of the range are optional, if neither are specified, the entire
  execution is traced.  Ranges that start with a `@' designate an address
  range to be traced, those that start with an `#' designate a cycle count
  range.  All other range values represent an instruction count range.  The
  second argument, if specified with a `+', indicates a value relative
  to the first argument, e.g., 1000:+100 == 1000:1100.  Program symbols may
  be used in all contexts.

    Examples:   -ptrace FOO.trc #0:#1000
                -ptrace BAR.trc @2000:
                -ptrace BLAH.trc :1500
                -ptrace UXXE.trc :
                -ptrace FOOBAR.trc @main:+278

  Branch predictor configuration examples for 2-level predictor:
    Configurations:   N, M, W, X
      N   # entries in first level (# of shift register(s))
      W   width of shift register(s)
      M   # entries in 2nd level (# of counters, or other FSM)
      X   (yes-1/no-0) xor history and address for 2nd level index
    Sample predictors:
      GAg     : 1, W, 2^W, 0
      GAp     : 1, W, M (M > 2^W), 0
      PAg     : N, W, 2^W, 0
      PAp     : N, W, M (M == 2^(N+W)), 0
      gshare  : 1, W, 2^W, 1
  Predictor `comb' combines a bimodal and a 2-level predictor.

  The cache config parameter <config> has the following format:

    <name>:<nsets>:<bsize>:<assoc>:<repl>

    <name>   - name of the cache being defined
    <nsets>  - number of sets in the cache
    <bsize>  - block size of the cache
    <assoc>  - associativity of the cache
    <repl>   - block replacement strategy, 'l'-LRU, 'f'-FIFO, 'r'-random

    Examples:   -cache:dl1 dl1:4096:32:1:l
                -dtlb dtlb:128:4096:32:r

  Cache levels can be unified by pointing a level of the instruction cache
  hierarchy at the data cache hiearchy using the "dl1" and "dl2" cache
  configuration arguments.  Most sensible combinations are supported, e.g.,

    A unified l2 cache (il2 is pointed at dl2):
      -cache:il1 il1:128:64:1:l -cache:il2 dl2
      -cache:dl1 dl1:256:32:1:l -cache:dl2 ul2:1024:64:2:l

    Or, a fully unified cache hierarchy (il1 pointed at dl1):
      -cache:il1 dl1
      -cache:dl1 ul1:256:32:1:l -cache:dl2 ul2:1024:64:2:l



sim: ** starting performance simulation **

Cache Parameters:
  Size in bytes: 16384
  Number of sets: 512
  Associativity: 4
  Block Size (bytes): 8

Access Time: 9.27925e-09
Cycle Time:  1.09081e-08

Best Ndwl (L1): 8
Best Ndbl (L1): 1
Best Nspd (L1): 1
Best Ntwl (L1): 1
Best Ntbl (L1): 4
Best Ntspd (L1): 1

Time Components:
 data side (with Output driver) (ns): 8.44162
 tag side (ns): 8.55667
 decode_data (ns): 5.29318
 wordline_data (ns): 1.03507
 bitline_data (ns): 0.810785
 sense_amp_data (ns): 0.58
 decode_tag (ns): 2.37065
 wordline_tag (ns): 1.36749
 bitline_tag (ns): 0.158246
 sense_amp_tag (ns): 0.26
 compare (ns): 2.42991
 mux driver (ns): 1.6125
 sel inverter (ns): 0.357877
 data output driver (ns): 0.722579
 total data path (with output driver) (ns): 7.71904
 total tag path is set assoc (ns): 8.55667
 precharge time (ns): 1.6289

Cache Parameters:
  Size in bytes: 16384
  Number of sets: 512
  Associativity: 1
  Block Size (bytes): 32

Access Time: 6.07496e-09
Cycle Time:  7.99836e-09

Best Ndwl (L1): 2
Best Ndbl (L1): 2
Best Nspd (L1): 1
Best Ntwl (L1): 1
Best Ntbl (L1): 2
Best Ntspd (L1): 2

Time Components:
 data side (with Output driver) (ns): 6.07496
 tag side (ns): 6.05737
 decode_data (ns): 2.92313
 wordline_data (ns): 1.32956
 bitline_data (ns): 0.452976
 sense_amp_data (ns): 0.58
 decode_tag (ns): 1.84499
 wordline_tag (ns): 0.825016
 bitline_tag (ns): 0.252886
 sense_amp_tag (ns): 0.26
 compare (ns): 2.30022
 valid signal driver (ns): 0.574251
 data output driver (ns): 0.789293
 total data path (with output driver) (ns): 5.28567
 total tag path is dm (ns): 6.05737
 precharge time (ns): 1.92339

Cache Parameters:
  Size in bytes: 16384
  Number of sets: 128
  Associativity: 4
  Block Size (bytes): 32

Access Time: 9.14093e-09
Cycle Time:  1.11718e-08

Best Ndwl (L1): 4
Best Ndbl (L1): 2
Best Nspd (L1): 1
Best Ntwl (L1): 1
Best Ntbl (L1): 2
Best Ntspd (L1): 1

Time Components:
 data side (with Output driver) (ns): 6.05114
 tag side (ns): 7.98848
 decode_data (ns): 2.92572
 wordline_data (ns): 1.437
 bitline_data (ns): -0.0440331
 sense_amp_data (ns): 0.58
 decode_tag (ns): 1.46851
 wordline_tag (ns): 1.27791
 bitline_tag (ns): -0.0315811
 sense_amp_tag (ns): 0.26
 compare (ns): 2.29478
 mux driver (ns): 2.37376
 sel inverter (ns): 0.345094
 data output driver (ns): 1.15245
 total data path (with output driver) (ns): 4.89869
 total tag path is set assoc (ns): 7.98848
 precharge time (ns): 2.03083

Cache Parameters:
  Size in bytes: 262144
  Number of sets: 1024
  Associativity: 4
  Block Size (bytes): 64

Access Time: 1.44948e-08
Cycle Time:  1.76863e-08

Best Ndwl (L1): 2
Best Ndbl (L1): 2
Best Nspd (L1): 1
Best Ntwl (L1): 1
Best Ntbl (L1): 4
Best Ntspd (L1): 1

Time Components:
 data side (with Output driver) (ns): 11.3269
 tag side (ns): 12.2049
 decode_data (ns): 4.99158
 wordline_data (ns): 2.59771
 bitline_data (ns): 0.867749
 sense_amp_data (ns): 0.58
 decode_tag (ns): 4.52586
 wordline_tag (ns): 1.24192
 bitline_tag (ns): 0.46158
 sense_amp_tag (ns): 0.26
 compare (ns): 2.17054
 mux driver (ns): 3.21212
 sel inverter (ns): 0.332908
 data output driver (ns): 2.28987
 total data path (with output driver) (ns): 9.03704
 total tag path is set assoc (ns): 12.2049
 precharge time (ns): 3.19154
curr_config_rom_index is 3
config 0 is 1 config 1 is 1
curr_config_rom_index is 3
config 0 is 1 config 1 is 1
curr_config_rom_index is 3
config 0 is 1 config 1 is 1
curr_config_rom_index is 3
config 0 is 1 config 1 is 1
curr_config_rom_index is 3
config 0 is 1 config 1 is 1
curr_config_rom_index is 3
config 0 is 1 config 1 is 1
curr_config_rom_index is 3
config 0 is 1 config 1 is 1
curr_config_rom_index is 3
config 0 is 1 config 1 is 1
curr_config_rom_index is 3
config 0 is 1 config 1 is 1
curr_config_rom_index is 3
config 0 is 1 config 1 is 1
curr_config_rom_index is 3
config 0 is 1 config 1 is 1
curr_config_rom_index is 3
config 0 is 1 config 1 is 1
curr_config_rom_index is 3
config 0 is 1 config 1 is 1
curr_config_rom_index is 3
config 0 is 1 config 1 is 1
curr_config_rom_index is 3
config 0 is 1 config 1 is 1
curr_config_rom_index is 3
config 0 is 1 config 1 is 1
curr_config_rom_index is 3
config 0 is 1 config 1 is 1
curr_config_rom_index is 3
config 0 is 1 config 1 is 1
curr_config_rom_index is 3
config 0 is 1 config 1 is 1
curr_config_rom_index is 3
config 0 is 1 config 1 is 1
curr_config_rom_index is 3
config 0 is 1 config 1 is 1
curr_config_rom_index is 3
config 0 is 1 config 1 is 1
curr_config_rom_index is 3
config 0 is 1 config 1 is 1
curr_config_rom_index is 3
config 0 is 1 config 1 is 1
curr_config_rom_index is 3
config 0 is 1 config 1 is 1
curr_config_rom_index is 3
config 0 is 1 config 1 is 1
curr_config_rom_index is 3
config 0 is 1 config 1 is 1
curr_config_rom_index is 3
config 0 is 1 config 1 is 1
curr_config_rom_index is 3
config 0 is 1 config 1 is 1
curr_config_rom_index is 3
config 0 is 1 config 1 is 1
curr_config_rom_index is 3
config 0 is 1 config 1 is 1
curr_config_rom_index is 3
config 0 is 1 config 1 is 1
curr_config_rom_index is 3
config 0 is 1 config 1 is 1
curr_config_rom_index is 3
config 0 is 1 config 1 is 1
curr_config_rom_index is 3
config 0 is 1 config 1 is 1
curr_config_rom_index is 3
config 0 is 1 config 1 is 1
curr_config_rom_index is 3
config 0 is 1 config 1 is 1
curr_config_rom_index is 3
config 0 is 1 config 1 is 1
curr_config_rom_index is 3
config 0 is 1 config 1 is 1
curr_config_rom_index is 3
config 0 is 1 config 1 is 1
curr_config_rom_index is 3
config 0 is 1 config 1 is 1
curr_config_rom_index is 3
config 0 is 1 config 1 is 1
curr_config_rom_index is 3
config 0 is 1 config 1 is 1
curr_config_rom_index is 3
config 0 is 1 config 1 is 1
curr_config_rom_index is 3
config 0 is 1 config 1 is 1
curr_config_rom_index is 3
config 0 is 1 config 1 is 1
curr_config_rom_index is 3
config 0 is 1 config 1 is 1
curr_config_rom_index is 3
config 0 is 1 config 1 is 1
curr_config_rom_index is 3
config 0 is 1 config 1 is 1
curr_config_rom_index is 3
config 0 is 1 config 1 is 1
curr_config_rom_index is 3
config 0 is 1 config 1 is 1
curr_config_rom_index is 3
config 0 is 1 config 1 is 1
curr_config_rom_index is 3
config 0 is 1 config 1 is 1
curr_config_rom_index is 3
config 0 is 1 config 1 is 1
curr_config_rom_index is 3
config 0 is 1 config 1 is 1
curr_config_rom_index is 3
config 0 is 1 config 1 is 1
curr_config_rom_index is 3
config 0 is 1 config 1 is 1
curr_config_rom_index is 3
config 0 is 1 config 1 is 1
curr_config_rom_index is 3
config 0 is 1 config 1 is 1
curr_config_rom_index is 3
config 0 is 1 config 1 is 1
curr_config_rom_index is 3
config 0 is 1 config 1 is 1
curr_config_rom_index is 3
config 0 is 1 config 1 is 1
curr_config_rom_index is 3
config 0 is 1 config 1 is 1
curr_config_rom_index is 3
config 0 is 1 config 1 is 1
curr_config_rom_index is 3
config 0 is 1 config 1 is 1
curr_config_rom_index is 3
config 0 is 1 config 1 is 1
curr_config_rom_index is 3
config 0 is 1 config 1 is 1
curr_config_rom_index is 3
config 0 is 1 config 1 is 1
curr_config_rom_index is 3
config 0 is 1 config 1 is 1
curr_config_rom_index is 3
config 0 is 1 config 1 is 1
curr_config_rom_index is 3
config 0 is 1 config 1 is 1
curr_config_rom_index is 3
config 0 is 1 config 1 is 1
curr_config_rom_index is 3
config 0 is 1 config 1 is 1
curr_config_rom_index is 3
config 0 is 1 config 1 is 1
curr_config_rom_index is 3
config 0 is 1 config 1 is 1
curr_config_rom_index is 3
config 0 is 1 config 1 is 1
curr_config_rom_index is 3
config 0 is 1 config 1 is 1
curr_config_rom_index is 3
config 0 is 1 config 1 is 1
curr_config_rom_index is 3
config 0 is 1 config 1 is 1
curr_config_rom_index is 3
config 0 is 1 config 1 is 1
curr_config_rom_index is 3
config 0 is 1 config 1 is 1
curr_config_rom_index is 3
config 0 is 1 config 1 is 1
curr_config_rom_index is 3
config 0 is 1 config 1 is 1
curr_config_rom_index is 3
config 0 is 1 config 1 is 1
curr_config_rom_index is 3
config 0 is 1 config 1 is 1
curr_config_rom_index is 3
config 0 is 1 config 1 is 1
curr_config_rom_index is 3
config 0 is 1 config 1 is 1
curr_config_rom_index is 3
config 0 is 1 config 1 is 1
curr_config_rom_index is 3
config 0 is 1 config 1 is 1
curr_config_rom_index is 3
config 0 is 1 config 1 is 1
curr_config_rom_index is 3
config 0 is 1 config 1 is 1
curr_config_rom_index is 3
config 0 is 1 config 1 is 1
curr_config_rom_index is 3
config 0 is 1 config 1 is 1
curr_config_rom_index is 3
config 0 is 1 config 1 is 1
curr_config_rom_index is 3
config 0 is 1 config 1 is 1
curr_config_rom_index is 3
config 0 is 1 config 1 is 1
curr_config_rom_index is 3
config 0 is 1 config 1 is 1
curr_config_rom_index is 3
config 0 is 1 config 1 is 1
curr_config_rom_index is 3
config 0 is 1 config 1 is 1
curr_config_rom_index is 3
config 0 is 1 config 1 is 1
curr_config_rom_index is 3
config 0 is 1 config 1 is 1
curr_config_rom_index is 3
config 0 is 1 config 1 is 1
curr_config_rom_index is 3
config 0 is 1 config 1 is 1
curr_config_rom_index is 3
config 0 is 1 config 1 is 1
curr_config_rom_index is 3
config 0 is 1 config 1 is 1
curr_config_rom_index is 3
config 0 is 1 config 1 is 1
curr_config_rom_index is 3
config 0 is 1 config 1 is 1
curr_config_rom_index is 3
config 0 is 1 config 1 is 1
curr_config_rom_index is 3
config 0 is 1 config 1 is 1
curr_config_rom_index is 3
config 0 is 1 config 1 is 1
curr_config_rom_index is 3
config 0 is 1 config 1 is 1
curr_config_rom_index is 3
config 0 is 1 config 1 is 1
curr_config_rom_index is 3
config 0 is 1 config 1 is 1
curr_config_rom_index is 3
config 0 is 1 config 1 is 1
curr_config_rom_index is 3
config 0 is 1 config 1 is 1
curr_config_rom_index is 3
config 0 is 1 config 1 is 1
curr_config_rom_index is 3
config 0 is 1 config 1 is 1
curr_config_rom_index is 3
config 0 is 1 config 1 is 1
curr_config_rom_index is 3
config 0 is 1 config 1 is 1
curr_config_rom_index is 3
config 0 is 1 config 1 is 1
curr_config_rom_index is 3
config 0 is 1 config 1 is 1
curr_config_rom_index is 3
config 0 is 1 config 1 is 1
curr_config_rom_index is 3
config 0 is 1 config 1 is 1
curr_config_rom_index is 3
config 0 is 1 config 1 is 1
curr_config_rom_index is 3
config 0 is 1 config 1 is 1
curr_config_rom_index is 3
config 0 is 1 config 1 is 1
curr_config_rom_index is 3
config 0 is 1 config 1 is 1
curr_config_rom_index is 3
config 0 is 1 config 1 is 1
curr_config_rom_index is 3
config 0 is 1 config 1 is 1
curr_config_rom_index is 3
config 0 is 1 config 1 is 1
curr_config_rom_index is 3
config 0 is 1 config 1 is 1
curr_config_rom_index is 3
config 0 is 1 config 1 is 1
curr_config_rom_index is 3
config 0 is 1 config 1 is 1
curr_config_rom_index is 3
config 0 is 1 config 1 is 1
curr_config_rom_index is 3
config 0 is 1 config 1 is 1
curr_config_rom_index is 3
config 0 is 1 config 1 is 1
curr_config_rom_index is 3
config 0 is 1 config 1 is 1
curr_config_rom_index is 3
config 0 is 1 config 1 is 1
curr_config_rom_index is 3
config 0 is 1 config 1 is 1
curr_config_rom_index is 3
config 0 is 1 config 1 is 1
curr_config_rom_index is 3
config 0 is 1 config 1 is 1
curr_config_rom_index is 3
config 0 is 1 config 1 is 1
curr_config_rom_index is 3
config 0 is 1 config 1 is 1
curr_config_rom_index is 3
config 0 is 1 config 1 is 1
curr_config_rom_index is 3
config 0 is 1 config 1 is 1
curr_config_rom_index is 3
config 0 is 1 config 1 is 1
curr_config_rom_index is 3
config 0 is 1 config 1 is 1
curr_config_rom_index is 3
config 0 is 1 config 1 is 1
curr_config_rom_index is 3
config 0 is 1 config 1 is 1
curr_config_rom_index is 3
config 0 is 1 config 1 is 1
curr_config_rom_index is 3
config 0 is 1 config 1 is 1
curr_config_rom_index is 3
config 0 is 1 config 1 is 1
curr_config_rom_index is 3
config 0 is 1 config 1 is 1
curr_config_rom_index is 3
config 0 is 1 config 1 is 1
curr_config_rom_index is 3
config 0 is 1 config 1 is 1
curr_config_rom_index is 3
config 0 is 1 config 1 is 1
curr_config_rom_index is 3
config 0 is 1 config 1 is 1
curr_config_rom_index is 3
config 0 is 1 config 1 is 1
curr_config_rom_index is 3
config 0 is 1 config 1 is 1
curr_config_rom_index is 3
config 0 is 1 config 1 is 1
curr_config_rom_index is 3
config 0 is 1 config 1 is 1
curr_config_rom_index is 3
config 0 is 1 config 1 is 1
curr_config_rom_index is 3
config 0 is 1 config 1 is 1
curr_config_rom_index is 3
config 0 is 1 config 1 is 1
curr_config_rom_index is 3
config 0 is 1 config 1 is 1
curr_config_rom_index is 3
config 0 is 1 config 1 is 1
curr_config_rom_index is 3
config 0 is 1 config 1 is 1
curr_config_rom_index is 3
config 0 is 1 config 1 is 1
curr_config_rom_index is 3
config 0 is 1 config 1 is 1
curr_config_rom_index is 3
config 0 is 1 config 1 is 1
curr_config_rom_index is 3
config 0 is 1 config 1 is 1
curr_config_rom_index is 3
config 0 is 1 config 1 is 1
curr_config_rom_index is 3
config 0 is 1 config 1 is 1
curr_config_rom_index is 3
config 0 is 1 config 1 is 1
curr_config_rom_index is 3
config 0 is 1 config 1 is 1
curr_config_rom_index is 3
config 0 is 1 config 1 is 1
curr_config_rom_index is 3
config 0 is 1 config 1 is 1
curr_config_rom_index is 3
config 0 is 1 config 1 is 1
curr_config_rom_index is 3
config 0 is 1 config 1 is 1
curr_config_rom_index is 3
config 0 is 1 config 1 is 1
curr_config_rom_index is 3
config 0 is 1 config 1 is 1
curr_config_rom_index is 3
config 0 is 1 config 1 is 1
curr_config_rom_index is 3
config 0 is 1 config 1 is 1
curr_config_rom_index is 3
config 0 is 1 config 1 is 1
curr_config_rom_index is 3
config 0 is 1 config 1 is 1
curr_config_rom_index is 3
config 0 is 1 config 1 is 1
curr_config_rom_index is 3
config 0 is 1 config 1 is 1
curr_config_rom_index is 3
config 0 is 1 config 1 is 1
curr_config_rom_index is 3
config 0 is 1 config 1 is 1
curr_config_rom_index is 3
config 0 is 1 config 1 is 1
curr_config_rom_index is 3
config 0 is 1 config 1 is 1
curr_config_rom_index is 3
config 0 is 1 config 1 is 1
curr_config_rom_index is 3
config 0 is 1 config 1 is 1
curr_config_rom_index is 3
config 0 is 1 config 1 is 1
curr_config_rom_index is 3
config 0 is 1 config 1 is 1
curr_config_rom_index is 3
config 0 is 1 config 1 is 1
curr_config_rom_index is 3
config 0 is 1 config 1 is 1
curr_config_rom_index is 3
config 0 is 1 config 1 is 1
curr_config_rom_index is 3
config 0 is 1 config 1 is 1
curr_config_rom_index is 3
config 0 is 1 config 1 is 1
curr_config_rom_index is 3
config 0 is 1 config 1 is 1
curr_config_rom_index is 3
config 0 is 1 config 1 is 1
curr_config_rom_index is 3
config 0 is 1 config 1 is 1
curr_config_rom_index is 3
config 0 is 1 config 1 is 1
curr_config_rom_index is 3
config 0 is 1 config 1 is 1
curr_config_rom_index is 3
config 0 is 1 config 1 is 1
curr_config_rom_index is 3
config 0 is 1 config 1 is 1
curr_config_rom_index is 3
config 0 is 1 config 1 is 1
curr_config_rom_index is 3
config 0 is 1 config 1 is 1
curr_config_rom_index is 3
config 0 is 1 config 1 is 1
curr_config_rom_index is 3
config 0 is 1 config 1 is 1
curr_config_rom_index is 3
config 0 is 1 config 1 is 1
curr_config_rom_index is 3
config 0 is 1 config 1 is 1
curr_config_rom_index is 3
config 0 is 1 config 1 is 1
curr_config_rom_index is 3
config 0 is 1 config 1 is 1
curr_config_rom_index is 3
config 0 is 1 config 1 is 1
curr_config_rom_index is 3
config 0 is 1 config 1 is 1
curr_config_rom_index is 3
config 0 is 1 config 1 is 1
curr_config_rom_index is 3
config 0 is 1 config 1 is 1
curr_config_rom_index is 3
config 0 is 1 config 1 is 1
curr_config_rom_index is 3
config 0 is 1 config 1 is 1
curr_config_rom_index is 3
config 0 is 1 config 1 is 1
curr_config_rom_index is 3
config 0 is 1 config 1 is 1
curr_config_rom_index is 3
config 0 is 1 config 1 is 1
curr_config_rom_index is 3
config 0 is 1 config 1 is 1
curr_config_rom_index is 3
config 0 is 1 config 1 is 1
curr_config_rom_index is 3
config 0 is 1 config 1 is 1
curr_config_rom_index is 3
config 0 is 1 config 1 is 1
curr_config_rom_index is 3
config 0 is 1 config 1 is 1
curr_config_rom_index is 3
config 0 is 1 config 1 is 1
curr_config_rom_index is 3
config 0 is 1 config 1 is 1
curr_config_rom_index is 3
config 0 is 1 config 1 is 1
curr_config_rom_index is 3
config 0 is 1 config 1 is 1
curr_config_rom_index is 3
config 0 is 1 config 1 is 1
curr_config_rom_index is 3
config 0 is 1 config 1 is 1
curr_config_rom_index is 3
config 0 is 1 config 1 is 1
curr_config_rom_index is 3
config 0 is 1 config 1 is 1
curr_config_rom_index is 3
config 0 is 1 config 1 is 1
curr_config_rom_index is 3
config 0 is 1 config 1 is 1
curr_config_rom_index is 3
config 0 is 1 config 1 is 1
curr_config_rom_index is 3
config 0 is 1 config 1 is 1
curr_config_rom_index is 3
config 0 is 1 config 1 is 1
curr_config_rom_index is 3
config 0 is 1 config 1 is 1
curr_config_rom_index is 3
config 0 is 1 config 1 is 1
curr_config_rom_index is 3
config 0 is 1 config 1 is 1
curr_config_rom_index is 3
config 0 is 1 config 1 is 1
curr_config_rom_index is 3
config 0 is 1 config 1 is 1
curr_config_rom_index is 3
config 0 is 1 config 1 is 1
curr_config_rom_index is 3
config 0 is 1 config 1 is 1
curr_config_rom_index is 3
config 0 is 1 config 1 is 1
curr_config_rom_index is 3
config 0 is 1 config 1 is 1
curr_config_rom_index is 3
config 0 is 1 config 1 is 1
curr_config_rom_index is 3
config 0 is 1 config 1 is 1
curr_config_rom_index is 3
config 0 is 1 config 1 is 1
curr_config_rom_index is 3
config 0 is 1 config 1 is 1
curr_config_rom_index is 3
config 0 is 1 config 1 is 1
curr_config_rom_index is 3
config 0 is 1 config 1 is 1
curr_config_rom_index is 3
config 0 is 1 config 1 is 1
curr_config_rom_index is 3
config 0 is 1 config 1 is 1
curr_config_rom_index is 3
config 0 is 1 config 1 is 1
curr_config_rom_index is 3
config 0 is 1 config 1 is 1
curr_config_rom_index is 3
config 0 is 1 config 1 is 1
curr_config_rom_index is 3
config 0 is 1 config 1 is 1
curr_config_rom_index is 3
config 0 is 1 config 1 is 1
curr_config_rom_index is 3
config 0 is 1 config 1 is 1
curr_config_rom_index is 3
config 0 is 1 config 1 is 1
curr_config_rom_index is 3
config 0 is 1 config 1 is 1
curr_config_rom_index is 3
config 0 is 1 config 1 is 1
curr_config_rom_index is 3
config 0 is 1 config 1 is 1
curr_config_rom_index is 3
config 0 is 1 config 1 is 1
curr_config_rom_index is 3
config 0 is 1 config 1 is 1
curr_config_rom_index is 3
config 0 is 1 config 1 is 1
curr_config_rom_index is 3
config 0 is 1 config 1 is 1
curr_config_rom_index is 3
config 0 is 1 config 1 is 1
curr_config_rom_index is 3
config 0 is 1 config 1 is 1
curr_config_rom_index is 3
config 0 is 1 config 1 is 1
curr_config_rom_index is 3
config 0 is 1 config 1 is 1
curr_config_rom_index is 3
config 0 is 1 config 1 is 1
curr_config_rom_index is 3
config 0 is 1 config 1 is 1
curr_config_rom_index is 3
config 0 is 1 config 1 is 1
curr_config_rom_index is 3
config 0 is 1 config 1 is 1
curr_config_rom_index is 3
config 0 is 1 config 1 is 1
curr_config_rom_index is 3
config 0 is 1 config 1 is 1
curr_config_rom_index is 3
config 0 is 1 config 1 is 1
curr_config_rom_index is 3
config 0 is 1 config 1 is 1
curr_config_rom_index is 3
config 0 is 1 config 1 is 1
curr_config_rom_index is 3
config 0 is 1 config 1 is 1
curr_config_rom_index is 3
config 0 is 1 config 1 is 1
curr_config_rom_index is 3
config 0 is 1 config 1 is 1
curr_config_rom_index is 3
config 0 is 1 config 1 is 1
curr_config_rom_index is 3
config 0 is 1 config 1 is 1
curr_config_rom_index is 3
config 0 is 1 config 1 is 1
curr_config_rom_index is 3
config 0 is 1 config 1 is 1
curr_config_rom_index is 3
config 0 is 1 config 1 is 1
curr_config_rom_index is 3
config 0 is 1 config 1 is 1
curr_config_rom_index is 3
config 0 is 1 config 1 is 1
curr_config_rom_index is 3
config 0 is 1 config 1 is 1
curr_config_rom_index is 3
config 0 is 1 config 1 is 1
curr_config_rom_index is 3
config 0 is 1 config 1 is 1
curr_config_rom_index is 3
config 0 is 1 config 1 is 1
curr_config_rom_index is 3
config 0 is 1 config 1 is 1
curr_config_rom_index is 3
config 0 is 1 config 1 is 1
curr_config_rom_index is 3
config 0 is 1 config 1 is 1
curr_config_rom_index is 3
config 0 is 1 config 1 is 1
curr_config_rom_index is 3
config 0 is 1 config 1 is 1
curr_config_rom_index is 3
config 0 is 1 config 1 is 1
curr_config_rom_index is 3
config 0 is 1 config 1 is 1
curr_config_rom_index is 3
config 0 is 1 config 1 is 1
curr_config_rom_index is 3
config 0 is 1 config 1 is 1
curr_config_rom_index is 3
config 0 is 1 config 1 is 1
curr_config_rom_index is 3
config 0 is 1 config 1 is 1
curr_config_rom_index is 3
config 0 is 1 config 1 is 1
curr_config_rom_index is 3
config 0 is 1 config 1 is 1
curr_config_rom_index is 3
config 0 is 1 config 1 is 1
curr_config_rom_index is 3
config 0 is 1 config 1 is 1
curr_config_rom_index is 3
config 0 is 1 config 1 is 1
curr_config_rom_index is 3
config 0 is 1 config 1 is 1
curr_config_rom_index is 3
config 0 is 1 config 1 is 1
curr_config_rom_index is 3
config 0 is 1 config 1 is 1
curr_config_rom_index is 3
config 0 is 1 config 1 is 1
curr_config_rom_index is 3
config 0 is 1 config 1 is 1
curr_config_rom_index is 3
config 0 is 1 config 1 is 1
curr_config_rom_index is 3
config 0 is 1 config 1 is 1
curr_config_rom_index is 3
config 0 is 1 config 1 is 1
curr_config_rom_index is 3
config 0 is 1 config 1 is 1
curr_config_rom_index is 3
config 0 is 1 config 1 is 1
curr_config_rom_index is 3
config 0 is 1 config 1 is 1
curr_config_rom_index is 3
config 0 is 1 config 1 is 1
curr_config_rom_index is 3
config 0 is 1 config 1 is 1
curr_config_rom_index is 3
config 0 is 1 config 1 is 1
curr_config_rom_index is 3
config 0 is 1 config 1 is 1
curr_config_rom_index is 3
config 0 is 1 config 1 is 1
curr_config_rom_index is 3
config 0 is 1 config 1 is 1
curr_config_rom_index is 3
config 0 is 1 config 1 is 1
curr_config_rom_index is 3
config 0 is 1 config 1 is 1
curr_config_rom_index is 3
config 0 is 1 config 1 is 1
curr_config_rom_index is 3
config 0 is 1 config 1 is 1
curr_config_rom_index is 3
config 0 is 1 config 1 is 1
curr_config_rom_index is 3
config 0 is 1 config 1 is 1
curr_config_rom_index is 3
config 0 is 1 config 1 is 1
curr_config_rom_index is 3
config 0 is 1 config 1 is 1
curr_config_rom_index is 3
config 0 is 1 config 1 is 1
curr_config_rom_index is 3
config 0 is 1 config 1 is 1
curr_config_rom_index is 3
config 0 is 1 config 1 is 1
curr_config_rom_index is 3
config 0 is 1 config 1 is 1
curr_config_rom_index is 3
config 0 is 1 config 1 is 1
curr_config_rom_index is 3
config 0 is 1 config 1 is 1
curr_config_rom_index is 3
config 0 is 1 config 1 is 1
curr_config_rom_index is 3
config 0 is 1 config 1 is 1
curr_config_rom_index is 3
config 0 is 1 config 1 is 1
curr_config_rom_index is 3
config 0 is 1 config 1 is 1
curr_config_rom_index is 3
config 0 is 1 config 1 is 1
curr_config_rom_index is 3
config 0 is 1 config 1 is 1
curr_config_rom_index is 3
config 0 is 1 config 1 is 1
curr_config_rom_index is 3
config 0 is 1 config 1 is 1
curr_config_rom_index is 3
config 0 is 1 config 1 is 1
curr_config_rom_index is 3
config 0 is 1 config 1 is 1
curr_config_rom_index is 3
config 0 is 1 config 1 is 1
curr_config_rom_index is 3
config 0 is 1 config 1 is 1
curr_config_rom_index is 3
config 0 is 1 config 1 is 1
curr_config_rom_index is 3
config 0 is 1 config 1 is 1
curr_config_rom_index is 3
config 0 is 1 config 1 is 1
curr_config_rom_index is 3
config 0 is 1 config 1 is 1
curr_config_rom_index is 3
config 0 is 1 config 1 is 1
curr_config_rom_index is 3
config 0 is 1 config 1 is 1
curr_config_rom_index is 3
config 0 is 1 config 1 is 1
curr_config_rom_index is 3
config 0 is 1 config 1 is 1
curr_config_rom_index is 3
config 0 is 1 config 1 is 1
curr_config_rom_index is 3
config 0 is 1 config 1 is 1
curr_config_rom_index is 3
config 0 is 1 config 1 is 1
curr_config_rom_index is 3
config 0 is 1 config 1 is 1
curr_config_rom_index is 3
config 0 is 1 config 1 is 1
curr_config_rom_index is 3
config 0 is 1 config 1 is 1
curr_config_rom_index is 3
config 0 is 1 config 1 is 1
curr_config_rom_index is 3
config 0 is 1 config 1 is 1
curr_config_rom_index is 3
config 0 is 1 config 1 is 1
curr_config_rom_index is 3
config 0 is 1 config 1 is 1
curr_config_rom_index is 3
config 0 is 1 config 1 is 1
curr_config_rom_index is 3
config 0 is 1 config 1 is 1
curr_config_rom_index is 3
config 0 is 1 config 1 is 1
curr_config_rom_index is 3
config 0 is 1 config 1 is 1
curr_config_rom_index is 3
config 0 is 1 config 1 is 1
curr_config_rom_index is 3
config 0 is 1 config 1 is 1
curr_config_rom_index is 3
config 0 is 1 config 1 is 1
curr_config_rom_index is 3
config 0 is 1 config 1 is 1
curr_config_rom_index is 3
config 0 is 1 config 1 is 1
curr_config_rom_index is 3
config 0 is 1 config 1 is 1
curr_config_rom_index is 3
config 0 is 1 config 1 is 1
curr_config_rom_index is 3
config 0 is 1 config 1 is 1
curr_config_rom_index is 3
config 0 is 1 config 1 is 1
curr_config_rom_index is 3
config 0 is 1 config 1 is 1
curr_config_rom_index is 3
config 0 is 1 config 1 is 1
curr_config_rom_index is 3
config 0 is 1 config 1 is 1
curr_config_rom_index is 3
config 0 is 1 config 1 is 1
curr_config_rom_index is 3
config 0 is 1 config 1 is 1
curr_config_rom_index is 3
config 0 is 1 config 1 is 1
curr_config_rom_index is 3
config 0 is 1 config 1 is 1
curr_config_rom_index is 3
config 0 is 1 config 1 is 1
curr_config_rom_index is 3
config 0 is 1 config 1 is 1
curr_config_rom_index is 3
config 0 is 1 config 1 is 1
curr_config_rom_index is 3
config 0 is 1 config 1 is 1
curr_config_rom_index is 3
config 0 is 1 config 1 is 1
curr_config_rom_index is 3
config 0 is 1 config 1 is 1
curr_config_rom_index is 3
config 0 is 1 config 1 is 1
curr_config_rom_index is 3
config 0 is 1 config 1 is 1
curr_config_rom_index is 3
config 0 is 1 config 1 is 1
curr_config_rom_index is 3
config 0 is 1 config 1 is 1
curr_config_rom_index is 3
config 0 is 1 config 1 is 1
curr_config_rom_index is 3
config 0 is 1 config 1 is 1
curr_config_rom_index is 3
config 0 is 1 config 1 is 1
curr_config_rom_index is 3
config 0 is 1 config 1 is 1
curr_config_rom_index is 3
config 0 is 1 config 1 is 1
curr_config_rom_index is 3
config 0 is 1 config 1 is 1
curr_config_rom_index is 3
config 0 is 1 config 1 is 1
curr_config_rom_index is 3
config 0 is 1 config 1 is 1
curr_config_rom_index is 3
config 0 is 1 config 1 is 1
curr_config_rom_index is 3
config 0 is 1 config 1 is 1
curr_config_rom_index is 3
config 0 is 1 config 1 is 1
curr_config_rom_index is 3
config 0 is 1 config 1 is 1
curr_config_rom_index is 3
config 0 is 1 config 1 is 1
curr_config_rom_index is 3
config 0 is 1 config 1 is 1
curr_config_rom_index is 3
config 0 is 1 config 1 is 1
curr_config_rom_index is 3
config 0 is 1 config 1 is 1
curr_config_rom_index is 3
config 0 is 1 config 1 is 1
curr_config_rom_index is 3
config 0 is 1 config 1 is 1
curr_config_rom_index is 3
config 0 is 1 config 1 is 1
curr_config_rom_index is 3
config 0 is 1 config 1 is 1
curr_config_rom_index is 3
config 0 is 1 config 1 is 1
curr_config_rom_index is 3
config 0 is 1 config 1 is 1
curr_config_rom_index is 3
config 0 is 1 config 1 is 1
curr_config_rom_index is 3
config 0 is 1 config 1 is 1
curr_config_rom_index is 3
config 0 is 1 config 1 is 1
curr_config_rom_index is 3
config 0 is 1 config 1 is 1
curr_config_rom_index is 3
config 0 is 1 config 1 is 1
curr_config_rom_index is 3
config 0 is 1 config 1 is 1
curr_config_rom_index is 3
config 0 is 1 config 1 is 1
curr_config_rom_index is 3
config 0 is 1 config 1 is 1
curr_config_rom_index is 3
config 0 is 1 config 1 is 1
curr_config_rom_index is 3
config 0 is 1 config 1 is 1
curr_config_rom_index is 3
config 0 is 1 config 1 is 1
curr_config_rom_index is 3
config 0 is 1 config 1 is 1
curr_config_rom_index is 3
config 0 is 1 config 1 is 1
curr_config_rom_index is 3
config 0 is 1 config 1 is 1
curr_config_rom_index is 3
config 0 is 1 config 1 is 1
curr_config_rom_index is 3
config 0 is 1 config 1 is 1
curr_config_rom_index is 3
config 0 is 1 config 1 is 1
curr_config_rom_index is 3
config 0 is 1 config 1 is 1
curr_config_rom_index is 3
config 0 is 1 config 1 is 1
curr_config_rom_index is 3
config 0 is 1 config 1 is 1
curr_config_rom_index is 3
config 0 is 1 config 1 is 1
curr_config_rom_index is 3
config 0 is 1 config 1 is 1
curr_config_rom_index is 3
config 0 is 1 config 1 is 1
curr_config_rom_index is 3
config 0 is 1 config 1 is 1
curr_config_rom_index is 3
config 0 is 1 config 1 is 1
curr_config_rom_index is 3
config 0 is 1 config 1 is 1
curr_config_rom_index is 3
config 0 is 1 config 1 is 1
curr_config_rom_index is 3
config 0 is 1 config 1 is 1
curr_config_rom_index is 3
config 0 is 1 config 1 is 1
curr_config_rom_index is 3
config 0 is 1 config 1 is 1
curr_config_rom_index is 3
config 0 is 1 config 1 is 1
curr_config_rom_index is 3
config 0 is 1 config 1 is 1
curr_config_rom_index is 3
config 0 is 1 config 1 is 1
curr_config_rom_index is 3
config 0 is 1 config 1 is 1
curr_config_rom_index is 3
config 0 is 1 config 1 is 1
curr_config_rom_index is 3
config 0 is 1 config 1 is 1
curr_config_rom_index is 3
config 0 is 1 config 1 is 1
curr_config_rom_index is 3
config 0 is 1 config 1 is 1
curr_config_rom_index is 3
config 0 is 1 config 1 is 1
curr_config_rom_index is 3
config 0 is 1 config 1 is 1
curr_config_rom_index is 3
config 0 is 1 config 1 is 1
curr_config_rom_index is 3
config 0 is 1 config 1 is 1
curr_config_rom_index is 3
config 0 is 1 config 1 is 1
curr_config_rom_index is 3
config 0 is 1 config 1 is 1
curr_config_rom_index is 3
config 0 is 1 config 1 is 1
curr_config_rom_index is 3
config 0 is 1 config 1 is 1
curr_config_rom_index is 3
config 0 is 1 config 1 is 1
curr_config_rom_index is 3
config 0 is 1 config 1 is 1
curr_config_rom_index is 3
config 0 is 1 config 1 is 1
curr_config_rom_index is 3
config 0 is 1 config 1 is 1
curr_config_rom_index is 3
config 0 is 1 config 1 is 1
curr_config_rom_index is 3
config 0 is 1 config 1 is 1
curr_config_rom_index is 3
config 0 is 1 config 1 is 1
curr_config_rom_index is 3
config 0 is 1 config 1 is 1
curr_config_rom_index is 3
config 0 is 1 config 1 is 1
curr_config_rom_index is 3
config 0 is 1 config 1 is 1
curr_config_rom_index is 3
config 0 is 1 config 1 is 1
curr_config_rom_index is 3
config 0 is 1 config 1 is 1
curr_config_rom_index is 3
config 0 is 1 config 1 is 1
curr_config_rom_index is 3
config 0 is 1 config 1 is 1
curr_config_rom_index is 3
config 0 is 1 config 1 is 1
curr_config_rom_index is 3
config 0 is 1 config 1 is 1
curr_config_rom_index is 3
config 0 is 1 config 1 is 1
curr_config_rom_index is 3
config 0 is 1 config 1 is 1
curr_config_rom_index is 3
config 0 is 1 config 1 is 1
curr_config_rom_index is 3
config 0 is 1 config 1 is 1
curr_config_rom_index is 3
config 0 is 1 config 1 is 1
curr_config_rom_index is 3
config 0 is 1 config 1 is 1
curr_config_rom_index is 3
config 0 is 1 config 1 is 1
curr_config_rom_index is 3
config 0 is 1 config 1 is 1
curr_config_rom_index is 3
config 0 is 1 config 1 is 1
curr_config_rom_index is 3
config 0 is 1 config 1 is 1
curr_config_rom_index is 3
config 0 is 1 config 1 is 1
curr_config_rom_index is 3
config 0 is 1 config 1 is 1
curr_config_rom_index is 3
config 0 is 1 config 1 is 1
curr_config_rom_index is 3
config 0 is 1 config 1 is 1
curr_config_rom_index is 3
config 0 is 1 config 1 is 1
curr_config_rom_index is 3
config 0 is 1 config 1 is 1
curr_config_rom_index is 3
config 0 is 1 config 1 is 1
curr_config_rom_index is 3
config 0 is 1 config 1 is 1
curr_config_rom_index is 3
config 0 is 1 config 1 is 1
curr_config_rom_index is 3
config 0 is 1 config 1 is 1
curr_config_rom_index is 3
config 0 is 1 config 1 is 1
curr_config_rom_index is 3
config 0 is 1 config 1 is 1
curr_config_rom_index is 3
config 0 is 1 config 1 is 1
curr_config_rom_index is 3
config 0 is 1 config 1 is 1
curr_config_rom_index is 3
config 0 is 1 config 1 is 1
curr_config_rom_index is 3
config 0 is 1 config 1 is 1
curr_config_rom_index is 3
config 0 is 1 config 1 is 1
curr_config_rom_index is 3
config 0 is 1 config 1 is 1
curr_config_rom_index is 3
config 0 is 1 config 1 is 1
curr_config_rom_index is 3
config 0 is 1 config 1 is 1
curr_config_rom_index is 3
config 0 is 1 config 1 is 1
curr_config_rom_index is 3
config 0 is 1 config 1 is 1
curr_config_rom_index is 3
config 0 is 1 config 1 is 1
curr_config_rom_index is 3
config 0 is 1 config 1 is 1
curr_config_rom_index is 3
config 0 is 1 config 1 is 1
curr_config_rom_index is 3
config 0 is 1 config 1 is 1
curr_config_rom_index is 3
config 0 is 1 config 1 is 1
curr_config_rom_index is 3
config 0 is 1 config 1 is 1
curr_config_rom_index is 3
config 0 is 1 config 1 is 1
curr_config_rom_index is 3
config 0 is 1 config 1 is 1
curr_config_rom_index is 3
config 0 is 1 config 1 is 1
curr_config_rom_index is 3
config 0 is 1 config 1 is 1
curr_config_rom_index is 3
config 0 is 1 config 1 is 1
curr_config_rom_index is 3
config 0 is 1 config 1 is 1
curr_config_rom_index is 3
config 0 is 1 config 1 is 1
curr_config_rom_index is 3
config 0 is 1 config 1 is 1
curr_config_rom_index is 3
config 0 is 1 config 1 is 1
curr_config_rom_index is 3
config 0 is 1 config 1 is 1
curr_config_rom_index is 3
config 0 is 1 config 1 is 1
curr_config_rom_index is 3
config 0 is 1 config 1 is 1
curr_config_rom_index is 3
config 0 is 1 config 1 is 1
curr_config_rom_index is 3
config 0 is 1 config 1 is 1
curr_config_rom_index is 3
config 0 is 1 config 1 is 1
curr_config_rom_index is 3
config 0 is 1 config 1 is 1
curr_config_rom_index is 3
config 0 is 1 config 1 is 1
curr_config_rom_index is 3
config 0 is 1 config 1 is 1
curr_config_rom_index is 3
config 0 is 1 config 1 is 1
curr_config_rom_index is 3
config 0 is 1 config 1 is 1
curr_config_rom_index is 3
config 0 is 1 config 1 is 1
curr_config_rom_index is 3
config 0 is 1 config 1 is 1
curr_config_rom_index is 3
config 0 is 1 config 1 is 1
curr_config_rom_index is 3
config 0 is 1 config 1 is 1
curr_config_rom_index is 3
config 0 is 1 config 1 is 1
curr_config_rom_index is 3
config 0 is 1 config 1 is 1
curr_config_rom_index is 3
config 0 is 1 config 1 is 1
curr_config_rom_index is 3
config 0 is 1 config 1 is 1
curr_config_rom_index is 3
config 0 is 1 config 1 is 1
curr_config_rom_index is 3
config 0 is 1 config 1 is 1
curr_config_rom_index is 3
config 0 is 1 config 1 is 1
curr_config_rom_index is 3
config 0 is 1 config 1 is 1
curr_config_rom_index is 3
config 0 is 1 config 1 is 1
curr_config_rom_index is 3
config 0 is 1 config 1 is 1
curr_config_rom_index is 3
config 0 is 1 config 1 is 1
curr_config_rom_index is 3
config 0 is 1 config 1 is 1
curr_config_rom_index is 3
config 0 is 1 config 1 is 1
curr_config_rom_index is 3
config 0 is 1 config 1 is 1
curr_config_rom_index is 3
config 0 is 1 config 1 is 1
curr_config_rom_index is 3
config 0 is 1 config 1 is 1
curr_config_rom_index is 3
config 0 is 1 config 1 is 1
curr_config_rom_index is 3
config 0 is 1 config 1 is 1
curr_config_rom_index is 3
config 0 is 1 config 1 is 1
curr_config_rom_index is 3
config 0 is 1 config 1 is 1
curr_config_rom_index is 3
config 0 is 1 config 1 is 1
curr_config_rom_index is 3
config 0 is 1 config 1 is 1
curr_config_rom_index is 3
config 0 is 1 config 1 is 1
curr_config_rom_index is 3
config 0 is 1 config 1 is 1
curr_config_rom_index is 3
config 0 is 1 config 1 is 1
curr_config_rom_index is 3
config 0 is 1 config 1 is 1
curr_config_rom_index is 3
config 0 is 1 config 1 is 1
curr_config_rom_index is 3
config 0 is 1 config 1 is 1
curr_config_rom_index is 3
config 0 is 1 config 1 is 1
curr_config_rom_index is 3
config 0 is 1 config 1 is 1
curr_config_rom_index is 3
config 0 is 1 config 1 is 1
curr_config_rom_index is 3
config 0 is 1 config 1 is 1
curr_config_rom_index is 3
config 0 is 1 config 1 is 1
curr_config_rom_index is 3
config 0 is 1 config 1 is 1
curr_config_rom_index is 3
config 0 is 1 config 1 is 1
curr_config_rom_index is 3
config 0 is 1 config 1 is 1
curr_config_rom_index is 3
config 0 is 1 config 1 is 1
curr_config_rom_index is 3
config 0 is 1 config 1 is 1
curr_config_rom_index is 3
config 0 is 1 config 1 is 1
curr_config_rom_index is 3
config 0 is 1 config 1 is 1
curr_config_rom_index is 3
config 0 is 1 config 1 is 1
curr_config_rom_index is 3
config 0 is 1 config 1 is 1
curr_config_rom_index is 3
config 0 is 1 config 1 is 1
curr_config_rom_index is 3
config 0 is 1 config 1 is 1
curr_config_rom_index is 3
config 0 is 1 config 1 is 1
curr_config_rom_index is 3
config 0 is 1 config 1 is 1
curr_config_rom_index is 3
config 0 is 1 config 1 is 1
curr_config_rom_index is 3
config 0 is 1 config 1 is 1
curr_config_rom_index is 3
config 0 is 1 config 1 is 1
curr_config_rom_index is 3
config 0 is 1 config 1 is 1
curr_config_rom_index is 3
config 0 is 1 config 1 is 1
curr_config_rom_index is 3
config 0 is 1 config 1 is 1
curr_config_rom_index is 3
config 0 is 1 config 1 is 1
curr_config_rom_index is 3
config 0 is 1 config 1 is 1
curr_config_rom_index is 3
config 0 is 1 config 1 is 1
curr_config_rom_index is 3
config 0 is 1 config 1 is 1
curr_config_rom_index is 3
config 0 is 1 config 1 is 1
curr_config_rom_index is 3
config 0 is 1 config 1 is 1
curr_config_rom_index is 3
config 0 is 1 config 1 is 1
curr_config_rom_index is 3
config 0 is 1 config 1 is 1
curr_config_rom_index is 3
config 0 is 1 config 1 is 1
curr_config_rom_index is 3
config 0 is 1 config 1 is 1
curr_config_rom_index is 3
config 0 is 1 config 1 is 1
curr_config_rom_index is 3
config 0 is 1 config 1 is 1
curr_config_rom_index is 3
config 0 is 1 config 1 is 1
curr_config_rom_index is 3
config 0 is 1 config 1 is 1
curr_config_rom_index is 3
config 0 is 1 config 1 is 1
curr_config_rom_index is 3
config 0 is 1 config 1 is 1
curr_config_rom_index is 3
config 0 is 1 config 1 is 1
curr_config_rom_index is 3
config 0 is 1 config 1 is 1
curr_config_rom_index is 3
config 0 is 1 config 1 is 1
curr_config_rom_index is 3
config 0 is 1 config 1 is 1
curr_config_rom_index is 3
config 0 is 1 config 1 is 1
curr_config_rom_index is 3
config 0 is 1 config 1 is 1
curr_config_rom_index is 3
config 0 is 1 config 1 is 1
curr_config_rom_index is 3
config 0 is 1 config 1 is 1
curr_config_rom_index is 3
config 0 is 1 config 1 is 1
curr_config_rom_index is 3
config 0 is 1 config 1 is 1
curr_config_rom_index is 3
config 0 is 1 config 1 is 1
curr_config_rom_index is 3
config 0 is 1 config 1 is 1
curr_config_rom_index is 3
config 0 is 1 config 1 is 1
curr_config_rom_index is 3
config 0 is 1 config 1 is 1
curr_config_rom_index is 3
config 0 is 1 config 1 is 1
curr_config_rom_index is 3
config 0 is 1 config 1 is 1
curr_config_rom_index is 3
config 0 is 1 config 1 is 1
curr_config_rom_index is 3
config 0 is 1 config 1 is 1
curr_config_rom_index is 3
config 0 is 1 config 1 is 1
curr_config_rom_index is 3
config 0 is 1 config 1 is 1
curr_config_rom_index is 3
config 0 is 1 config 1 is 1
curr_config_rom_index is 3
config 0 is 1 config 1 is 1
curr_config_rom_index is 3
config 0 is 1 config 1 is 1
curr_config_rom_index is 3
config 0 is 1 config 1 is 1
curr_config_rom_index is 3
config 0 is 1 config 1 is 1
curr_config_rom_index is 3
config 0 is 1 config 1 is 1
curr_config_rom_index is 3
config 0 is 1 config 1 is 1
curr_config_rom_index is 3
config 0 is 1 config 1 is 1
curr_config_rom_index is 3
config 0 is 1 config 1 is 1
curr_config_rom_index is 3
config 0 is 1 config 1 is 1
curr_config_rom_index is 3
config 0 is 1 config 1 is 1
curr_config_rom_index is 3
config 0 is 1 config 1 is 1
curr_config_rom_index is 3
config 0 is 1 config 1 is 1
curr_config_rom_index is 3
config 0 is 1 config 1 is 1
curr_config_rom_index is 3
config 0 is 1 config 1 is 1
curr_config_rom_index is 3
config 0 is 1 config 1 is 1
curr_config_rom_index is 3
config 0 is 1 config 1 is 1
curr_config_rom_index is 3
config 0 is 1 config 1 is 1
curr_config_rom_index is 3
config 0 is 1 config 1 is 1
curr_config_rom_index is 3
config 0 is 1 config 1 is 1
curr_config_rom_index is 3
config 0 is 1 config 1 is 1
curr_config_rom_index is 3
config 0 is 1 config 1 is 1
curr_config_rom_index is 3
config 0 is 1 config 1 is 1
curr_config_rom_index is 3
config 0 is 1 config 1 is 1
curr_config_rom_index is 3
config 0 is 1 config 1 is 1
curr_config_rom_index is 3
config 0 is 1 config 1 is 1
curr_config_rom_index is 3
config 0 is 1 config 1 is 1
curr_config_rom_index is 3
config 0 is 1 config 1 is 1
curr_config_rom_index is 3
config 0 is 1 config 1 is 1
curr_config_rom_index is 3
config 0 is 1 config 1 is 1
curr_config_rom_index is 3
config 0 is 1 config 1 is 1
curr_config_rom_index is 3
config 0 is 1 config 1 is 1
curr_config_rom_index is 3
config 0 is 1 config 1 is 1
curr_config_rom_index is 3
config 0 is 1 config 1 is 1
curr_config_rom_index is 3
config 0 is 1 config 1 is 1
curr_config_rom_index is 3
config 0 is 1 config 1 is 1
curr_config_rom_index is 3
config 0 is 1 config 1 is 1
curr_config_rom_index is 3
config 0 is 1 config 1 is 1
curr_config_rom_index is 3
config 0 is 1 config 1 is 1
curr_config_rom_index is 3
config 0 is 1 config 1 is 1
curr_config_rom_index is 3
config 0 is 1 config 1 is 1
curr_config_rom_index is 3
config 0 is 1 config 1 is 1
curr_config_rom_index is 3
config 0 is 1 config 1 is 1
curr_config_rom_index is 3
config 0 is 1 config 1 is 1
curr_config_rom_index is 3
config 0 is 1 config 1 is 1
curr_config_rom_index is 3
config 0 is 1 config 1 is 1
curr_config_rom_index is 3
config 0 is 1 config 1 is 1
curr_config_rom_index is 3
config 0 is 1 config 1 is 1
curr_config_rom_index is 3
config 0 is 1 config 1 is 1
curr_config_rom_index is 3
config 0 is 1 config 1 is 1
curr_config_rom_index is 3
config 0 is 1 config 1 is 1
curr_config_rom_index is 3
config 0 is 1 config 1 is 1
curr_config_rom_index is 3
config 0 is 1 config 1 is 1
curr_config_rom_index is 3
config 0 is 1 config 1 is 1
curr_config_rom_index is 3
config 0 is 1 config 1 is 1
curr_config_rom_index is 3
config 0 is 1 config 1 is 1
curr_config_rom_index is 3
config 0 is 1 config 1 is 1
curr_config_rom_index is 3
config 0 is 1 config 1 is 1
curr_config_rom_index is 3
config 0 is 1 config 1 is 1
curr_config_rom_index is 3
config 0 is 1 config 1 is 1
curr_config_rom_index is 3
config 0 is 1 config 1 is 1
curr_config_rom_index is 3
config 0 is 1 config 1 is 1
curr_config_rom_index is 3
config 0 is 1 config 1 is 1
curr_config_rom_index is 3
config 0 is 1 config 1 is 1
curr_config_rom_index is 3
config 0 is 1 config 1 is 1
curr_config_rom_index is 3
config 0 is 1 config 1 is 1
curr_config_rom_index is 3
config 0 is 1 config 1 is 1
curr_config_rom_index is 3
config 0 is 1 config 1 is 1
curr_config_rom_index is 3
config 0 is 1 config 1 is 1
curr_config_rom_index is 3
config 0 is 1 config 1 is 1
curr_config_rom_index is 3
config 0 is 1 config 1 is 1
curr_config_rom_index is 3
config 0 is 1 config 1 is 1
curr_config_rom_index is 3
config 0 is 1 config 1 is 1
curr_config_rom_index is 3
config 0 is 1 config 1 is 1
curr_config_rom_index is 3
config 0 is 1 config 1 is 1
curr_config_rom_index is 3
config 0 is 1 config 1 is 1
curr_config_rom_index is 3
config 0 is 1 config 1 is 1
curr_config_rom_index is 3
config 0 is 1 config 1 is 1
curr_config_rom_index is 3
config 0 is 1 config 1 is 1
curr_config_rom_index is 3
config 0 is 1 config 1 is 1
curr_config_rom_index is 3
config 0 is 1 config 1 is 1
curr_config_rom_index is 3
config 0 is 1 config 1 is 1
curr_config_rom_index is 3
config 0 is 1 config 1 is 1
curr_config_rom_index is 3
config 0 is 1 config 1 is 1
curr_config_rom_index is 3
config 0 is 1 config 1 is 1
curr_config_rom_index is 3
config 0 is 1 config 1 is 1
curr_config_rom_index is 3
config 0 is 1 config 1 is 1
curr_config_rom_index is 3
config 0 is 1 config 1 is 1
curr_config_rom_index is 3
config 0 is 1 config 1 is 1
curr_config_rom_index is 3
config 0 is 1 config 1 is 1
curr_config_rom_index is 3
config 0 is 1 config 1 is 1
curr_config_rom_index is 3
config 0 is 1 config 1 is 1
curr_config_rom_index is 3
config 0 is 1 config 1 is 1
curr_config_rom_index is 3
config 0 is 1 config 1 is 1
curr_config_rom_index is 3
config 0 is 1 config 1 is 1
curr_config_rom_index is 3
config 0 is 1 config 1 is 1
curr_config_rom_index is 3
config 0 is 1 config 1 is 1
curr_config_rom_index is 3
config 0 is 1 config 1 is 1
curr_config_rom_index is 3
config 0 is 1 config 1 is 1
curr_config_rom_index is 3
config 0 is 1 config 1 is 1
curr_config_rom_index is 3
config 0 is 1 config 1 is 1
curr_config_rom_index is 3
config 0 is 1 config 1 is 1
curr_config_rom_index is 3
config 0 is 1 config 1 is 1
curr_config_rom_index is 3
config 0 is 1 config 1 is 1
curr_config_rom_index is 3
config 0 is 1 config 1 is 1
curr_config_rom_index is 3
config 0 is 1 config 1 is 1
curr_config_rom_index is 3
config 0 is 1 config 1 is 1
curr_config_rom_index is 3
config 0 is 1 config 1 is 1
curr_config_rom_index is 3
config 0 is 1 config 1 is 1
curr_config_rom_index is 3
config 0 is 1 config 1 is 1
curr_config_rom_index is 3
config 0 is 1 config 1 is 1
curr_config_rom_index is 3
config 0 is 1 config 1 is 1
curr_config_rom_index is 3
config 0 is 1 config 1 is 1
curr_config_rom_index is 3
config 0 is 1 config 1 is 1
curr_config_rom_index is 3
config 0 is 1 config 1 is 1
curr_config_rom_index is 3
config 0 is 1 config 1 is 1
curr_config_rom_index is 3
config 0 is 1 config 1 is 1
curr_config_rom_index is 3
config 0 is 1 config 1 is 1
curr_config_rom_index is 3
config 0 is 1 config 1 is 1
curr_config_rom_index is 3
config 0 is 1 config 1 is 1
curr_config_rom_index is 3
config 0 is 1 config 1 is 1
curr_config_rom_index is 3
config 0 is 1 config 1 is 1
curr_config_rom_index is 3
config 0 is 1 config 1 is 1
curr_config_rom_index is 3
config 0 is 1 config 1 is 1
curr_config_rom_index is 3
config 0 is 1 config 1 is 1
curr_config_rom_index is 3
config 0 is 1 config 1 is 1
curr_config_rom_index is 3
config 0 is 1 config 1 is 1
curr_config_rom_index is 3
config 0 is 1 config 1 is 1
curr_config_rom_index is 3
config 0 is 1 config 1 is 1
curr_config_rom_index is 3
config 0 is 1 config 1 is 1
curr_config_rom_index is 3
config 0 is 1 config 1 is 1
curr_config_rom_index is 3
config 0 is 1 config 1 is 1
curr_config_rom_index is 3
config 0 is 1 config 1 is 1
curr_config_rom_index is 3
config 0 is 1 config 1 is 1
curr_config_rom_index is 3
config 0 is 1 config 1 is 1
curr_config_rom_index is 3
config 0 is 1 config 1 is 1
curr_config_rom_index is 3
config 0 is 1 config 1 is 1
curr_config_rom_index is 3
config 0 is 1 config 1 is 1
curr_config_rom_index is 3
config 0 is 1 config 1 is 1
curr_config_rom_index is 3
config 0 is 1 config 1 is 1
curr_config_rom_index is 3
config 0 is 1 config 1 is 1
curr_config_rom_index is 3
config 0 is 1 config 1 is 1
curr_config_rom_index is 3
config 0 is 1 config 1 is 1
curr_config_rom_index is 3
config 0 is 1 config 1 is 1
curr_config_rom_index is 3
config 0 is 1 config 1 is 1
curr_config_rom_index is 3
config 0 is 1 config 1 is 1
curr_config_rom_index is 3
config 0 is 1 config 1 is 1
curr_config_rom_index is 3
config 0 is 1 config 1 is 1
curr_config_rom_index is 3
config 0 is 1 config 1 is 1
curr_config_rom_index is 3
config 0 is 1 config 1 is 1
curr_config_rom_index is 3
config 0 is 1 config 1 is 1
curr_config_rom_index is 3
config 0 is 1 config 1 is 1
curr_config_rom_index is 3
config 0 is 1 config 1 is 1
curr_config_rom_index is 3
config 0 is 1 config 1 is 1
curr_config_rom_index is 3
config 0 is 1 config 1 is 1
curr_config_rom_index is 3
config 0 is 1 config 1 is 1
curr_config_rom_index is 3
config 0 is 1 config 1 is 1
curr_config_rom_index is 3
config 0 is 1 config 1 is 1
curr_config_rom_index is 3
config 0 is 1 config 1 is 1
curr_config_rom_index is 3
config 0 is 1 config 1 is 1
curr_config_rom_index is 3
config 0 is 1 config 1 is 1
curr_config_rom_index is 3
config 0 is 1 config 1 is 1
curr_config_rom_index is 3
config 0 is 1 config 1 is 1
curr_config_rom_index is 3
config 0 is 1 config 1 is 1
curr_config_rom_index is 3
config 0 is 1 config 1 is 1
curr_config_rom_index is 3
config 0 is 1 config 1 is 1
curr_config_rom_index is 3
config 0 is 1 config 1 is 1
curr_config_rom_index is 3
config 0 is 1 config 1 is 1
curr_config_rom_index is 3
config 0 is 1 config 1 is 1
curr_config_rom_index is 3
config 0 is 1 config 1 is 1
curr_config_rom_index is 3
config 0 is 1 config 1 is 1
curr_config_rom_index is 3
config 0 is 1 config 1 is 1
curr_config_rom_index is 3
config 0 is 1 config 1 is 1
curr_config_rom_index is 3
config 0 is 1 config 1 is 1
curr_config_rom_index is 3
config 0 is 1 config 1 is 1
curr_config_rom_index is 3
config 0 is 1 config 1 is 1
curr_config_rom_index is 3
config 0 is 1 config 1 is 1
curr_config_rom_index is 3
config 0 is 1 config 1 is 1
curr_config_rom_index is 3
config 0 is 1 config 1 is 1
curr_config_rom_index is 3
config 0 is 1 config 1 is 1
curr_config_rom_index is 3
config 0 is 1 config 1 is 1
curr_config_rom_index is 3
config 0 is 1 config 1 is 1
curr_config_rom_index is 3
config 0 is 1 config 1 is 1
curr_config_rom_index is 3
config 0 is 1 config 1 is 1
curr_config_rom_index is 3
config 0 is 1 config 1 is 1
curr_config_rom_index is 3
config 0 is 1 config 1 is 1
curr_config_rom_index is 3
config 0 is 1 config 1 is 1
curr_config_rom_index is 3
config 0 is 1 config 1 is 1
curr_config_rom_index is 3
config 0 is 1 config 1 is 1
curr_config_rom_index is 3
config 0 is 1 config 1 is 1
curr_config_rom_index is 3
config 0 is 1 config 1 is 1
curr_config_rom_index is 3
config 0 is 1 config 1 is 1
curr_config_rom_index is 3
config 0 is 1 config 1 is 1
curr_config_rom_index is 3
config 0 is 1 config 1 is 1
curr_config_rom_index is 3
config 0 is 1 config 1 is 1
curr_config_rom_index is 3
config 0 is 1 config 1 is 1
curr_config_rom_index is 3
config 0 is 1 config 1 is 1
curr_config_rom_index is 3
config 0 is 1 config 1 is 1
curr_config_rom_index is 3
config 0 is 1 config 1 is 1
curr_config_rom_index is 3
config 0 is 1 config 1 is 1
curr_config_rom_index is 3
config 0 is 1 config 1 is 1
curr_config_rom_index is 3
config 0 is 1 config 1 is 1
curr_config_rom_index is 3
config 0 is 1 config 1 is 1
curr_config_rom_index is 3
config 0 is 1 config 1 is 1
curr_config_rom_index is 3
config 0 is 1 config 1 is 1
curr_config_rom_index is 3
config 0 is 1 config 1 is 1
curr_config_rom_index is 3
config 0 is 1 config 1 is 1
curr_config_rom_index is 3
config 0 is 1 config 1 is 1
curr_config_rom_index is 3
config 0 is 1 config 1 is 1
curr_config_rom_index is 3
config 0 is 1 config 1 is 1
curr_config_rom_index is 3
config 0 is 1 config 1 is 1
curr_config_rom_index is 3
config 0 is 1 config 1 is 1
curr_config_rom_index is 3
config 0 is 1 config 1 is 1
curr_config_rom_index is 3
config 0 is 1 config 1 is 1
curr_config_rom_index is 3
config 0 is 1 config 1 is 1
curr_config_rom_index is 3
config 0 is 1 config 1 is 1
curr_config_rom_index is 3
config 0 is 1 config 1 is 1
curr_config_rom_index is 3
config 0 is 1 config 1 is 1
curr_config_rom_index is 3
config 0 is 1 config 1 is 1
curr_config_rom_index is 3
config 0 is 1 config 1 is 1
curr_config_rom_index is 3
config 0 is 1 config 1 is 1
curr_config_rom_index is 3
config 0 is 1 config 1 is 1
curr_config_rom_index is 3
config 0 is 1 config 1 is 1
curr_config_rom_index is 3
config 0 is 1 config 1 is 1
curr_config_rom_index is 3
config 0 is 1 config 1 is 1
curr_config_rom_index is 3
config 0 is 1 config 1 is 1
curr_config_rom_index is 3
config 0 is 1 config 1 is 1
curr_config_rom_index is 3
config 0 is 1 config 1 is 1
curr_config_rom_index is 3
config 0 is 1 config 1 is 1
curr_config_rom_index is 3
config 0 is 1 config 1 is 1
curr_config_rom_index is 3
config 0 is 1 config 1 is 1
curr_config_rom_index is 3
config 0 is 1 config 1 is 1
curr_config_rom_index is 3
config 0 is 1 config 1 is 1
curr_config_rom_index is 3
config 0 is 1 config 1 is 1
curr_config_rom_index is 3
config 0 is 1 config 1 is 1
curr_config_rom_index is 3
config 0 is 1 config 1 is 1
curr_config_rom_index is 3
config 0 is 1 config 1 is 1
curr_config_rom_index is 3
config 0 is 1 config 1 is 1
curr_config_rom_index is 3
config 0 is 1 config 1 is 1
curr_config_rom_index is 3
config 0 is 1 config 1 is 1
curr_config_rom_index is 3
config 0 is 1 config 1 is 1
curr_config_rom_index is 3
config 0 is 1 config 1 is 1
curr_config_rom_index is 3
config 0 is 1 config 1 is 1
curr_config_rom_index is 3
config 0 is 1 config 1 is 1
curr_config_rom_index is 3
config 0 is 1 config 1 is 1
curr_config_rom_index is 3
config 0 is 1 config 1 is 1
curr_config_rom_index is 3
config 0 is 1 config 1 is 1
curr_config_rom_index is 3
config 0 is 1 config 1 is 1
curr_config_rom_index is 3
config 0 is 1 config 1 is 1
curr_config_rom_index is 3
config 0 is 1 config 1 is 1
curr_config_rom_index is 3
config 0 is 1 config 1 is 1
curr_config_rom_index is 3
config 0 is 1 config 1 is 1
curr_config_rom_index is 3
config 0 is 1 config 1 is 1
curr_config_rom_index is 3
config 0 is 1 config 1 is 1
curr_config_rom_index is 3
config 0 is 1 config 1 is 1
curr_config_rom_index is 3
config 0 is 1 config 1 is 1
curr_config_rom_index is 3
config 0 is 1 config 1 is 1
curr_config_rom_index is 3
config 0 is 1 config 1 is 1
curr_config_rom_index is 3
config 0 is 1 config 1 is 1
curr_config_rom_index is 3
config 0 is 1 config 1 is 1
curr_config_rom_index is 3
config 0 is 1 config 1 is 1
curr_config_rom_index is 3
config 0 is 1 config 1 is 1
curr_config_rom_index is 3
config 0 is 1 config 1 is 1
curr_config_rom_index is 3
config 0 is 1 config 1 is 1
curr_config_rom_index is 3
config 0 is 1 config 1 is 1
curr_config_rom_index is 3
config 0 is 1 config 1 is 1
curr_config_rom_index is 3
config 0 is 1 config 1 is 1
curr_config_rom_index is 3
config 0 is 1 config 1 is 1
curr_config_rom_index is 3
config 0 is 1 config 1 is 1
curr_config_rom_index is 3
config 0 is 1 config 1 is 1
curr_config_rom_index is 3
config 0 is 1 config 1 is 1
curr_config_rom_index is 3
config 0 is 1 config 1 is 1
curr_config_rom_index is 3
config 0 is 1 config 1 is 1
curr_config_rom_index is 3
config 0 is 1 config 1 is 1
curr_config_rom_index is 3
config 0 is 1 config 1 is 1
curr_config_rom_index is 3
config 0 is 1 config 1 is 1
curr_config_rom_index is 3
config 0 is 1 config 1 is 1
curr_config_rom_index is 3
config 0 is 1 config 1 is 1
curr_config_rom_index is 3
config 0 is 1 config 1 is 1
curr_config_rom_index is 3
config 0 is 1 config 1 is 1
curr_config_rom_index is 3
config 0 is 1 config 1 is 1
curr_config_rom_index is 3
config 0 is 1 config 1 is 1
curr_config_rom_index is 3
config 0 is 1 config 1 is 1
curr_config_rom_index is 3
config 0 is 1 config 1 is 1
curr_config_rom_index is 3
config 0 is 1 config 1 is 1
curr_config_rom_index is 3
config 0 is 1 config 1 is 1
curr_config_rom_index is 3
config 0 is 1 config 1 is 1
curr_config_rom_index is 3
config 0 is 1 config 1 is 1
curr_config_rom_index is 3
config 0 is 1 config 1 is 1
curr_config_rom_index is 3
config 0 is 1 config 1 is 1
curr_config_rom_index is 3
config 0 is 1 config 1 is 1
curr_config_rom_index is 3
config 0 is 1 config 1 is 1
curr_config_rom_index is 3
config 0 is 1 config 1 is 1
curr_config_rom_index is 3
config 0 is 1 config 1 is 1
curr_config_rom_index is 3
config 0 is 1 config 1 is 1
curr_config_rom_index is 3
config 0 is 1 config 1 is 1
curr_config_rom_index is 3
config 0 is 1 config 1 is 1
curr_config_rom_index is 3
config 0 is 1 config 1 is 1
curr_config_rom_index is 3
config 0 is 1 config 1 is 1
curr_config_rom_index is 3
config 0 is 1 config 1 is 1
curr_config_rom_index is 3
config 0 is 1 config 1 is 1
curr_config_rom_index is 3
config 0 is 1 config 1 is 1
curr_config_rom_index is 3
config 0 is 1 config 1 is 1
curr_config_rom_index is 3
config 0 is 1 config 1 is 1
curr_config_rom_index is 3
config 0 is 1 config 1 is 1
curr_config_rom_index is 3
config 0 is 1 config 1 is 1
curr_config_rom_index is 3
config 0 is 1 config 1 is 1
curr_config_rom_index is 3
config 0 is 1 config 1 is 1
curr_config_rom_index is 3
config 0 is 1 config 1 is 1
curr_config_rom_index is 3
config 0 is 1 config 1 is 1
curr_config_rom_index is 3
config 0 is 1 config 1 is 1
curr_config_rom_index is 3
config 0 is 1 config 1 is 1
curr_config_rom_index is 3
config 0 is 1 config 1 is 1
curr_config_rom_index is 3
config 0 is 1 config 1 is 1
curr_config_rom_index is 3
config 0 is 1 config 1 is 1
curr_config_rom_index is 3
config 0 is 1 config 1 is 1
curr_config_rom_index is 3
config 0 is 1 config 1 is 1
curr_config_rom_index is 3
config 0 is 1 config 1 is 1
curr_config_rom_index is 3
config 0 is 1 config 1 is 1
curr_config_rom_index is 3
config 0 is 1 config 1 is 1
curr_config_rom_index is 3
config 0 is 1 config 1 is 1
curr_config_rom_index is 3
config 0 is 1 config 1 is 1
curr_config_rom_index is 3
config 0 is 1 config 1 is 1
curr_config_rom_index is 3
config 0 is 1 config 1 is 1
curr_config_rom_index is 3
config 0 is 1 config 1 is 1
curr_config_rom_index is 3
config 0 is 1 config 1 is 1
curr_config_rom_index is 3
config 0 is 1 config 1 is 1
curr_config_rom_index is 3
config 0 is 1 config 1 is 1
curr_config_rom_index is 3
config 0 is 1 config 1 is 1
curr_config_rom_index is 3
config 0 is 1 config 1 is 1
curr_config_rom_index is 3
config 0 is 1 config 1 is 1
curr_config_rom_index is 3
config 0 is 1 config 1 is 1
curr_config_rom_index is 3
config 0 is 1 config 1 is 1
curr_config_rom_index is 3
config 0 is 1 config 1 is 1
curr_config_rom_index is 3
config 0 is 1 config 1 is 1
curr_config_rom_index is 3
config 0 is 1 config 1 is 1
curr_config_rom_index is 3
config 0 is 1 config 1 is 1
curr_config_rom_index is 3
config 0 is 1 config 1 is 1
curr_config_rom_index is 3
config 0 is 1 config 1 is 1
curr_config_rom_index is 3
config 0 is 1 config 1 is 1
curr_config_rom_index is 3
config 0 is 1 config 1 is 1
curr_config_rom_index is 3
config 0 is 1 config 1 is 1
curr_config_rom_index is 3
config 0 is 1 config 1 is 1
curr_config_rom_index is 3
config 0 is 1 config 1 is 1
curr_config_rom_index is 3
config 0 is 1 config 1 is 1
curr_config_rom_index is 3
config 0 is 1 config 1 is 1
curr_config_rom_index is 3
config 0 is 1 config 1 is 1
curr_config_rom_index is 3
config 0 is 1 config 1 is 1
curr_config_rom_index is 3
config 0 is 1 config 1 is 1
curr_config_rom_index is 3
config 0 is 1 config 1 is 1
curr_config_rom_index is 3
config 0 is 1 config 1 is 1
curr_config_rom_index is 3
config 0 is 1 config 1 is 1
curr_config_rom_index is 3
config 0 is 1 config 1 is 1
curr_config_rom_index is 3
config 0 is 1 config 1 is 1
curr_config_rom_index is 3
config 0 is 1 config 1 is 1
curr_config_rom_index is 3
config 0 is 1 config 1 is 1
curr_config_rom_index is 3
config 0 is 1 config 1 is 1
curr_config_rom_index is 3
config 0 is 1 config 1 is 1
curr_config_rom_index is 3
config 0 is 1 config 1 is 1
curr_config_rom_index is 3
config 0 is 1 config 1 is 1
curr_config_rom_index is 3
config 0 is 1 config 1 is 1
curr_config_rom_index is 3
config 0 is 1 config 1 is 1
curr_config_rom_index is 3
config 0 is 1 config 1 is 1
curr_config_rom_index is 3
config 0 is 1 config 1 is 1
curr_config_rom_index is 3
config 0 is 1 config 1 is 1
curr_config_rom_index is 3
config 0 is 1 config 1 is 1
curr_config_rom_index is 3
config 0 is 1 config 1 is 1
curr_config_rom_index is 3
config 0 is 1 config 1 is 1
curr_config_rom_index is 3
config 0 is 1 config 1 is 1
curr_config_rom_index is 3
config 0 is 1 config 1 is 1
curr_config_rom_index is 3
config 0 is 1 config 1 is 1
curr_config_rom_index is 3
config 0 is 1 config 1 is 1
curr_config_rom_index is 3
config 0 is 1 config 1 is 1
curr_config_rom_index is 3
config 0 is 1 config 1 is 1
curr_config_rom_index is 3
config 0 is 1 config 1 is 1
curr_config_rom_index is 3
config 0 is 1 config 1 is 1
curr_config_rom_index is 3
config 0 is 1 config 1 is 1
curr_config_rom_index is 3
config 0 is 1 config 1 is 1
curr_config_rom_index is 3
config 0 is 1 config 1 is 1
curr_config_rom_index is 3
config 0 is 1 config 1 is 1
curr_config_rom_index is 3
config 0 is 1 config 1 is 1
curr_config_rom_index is 3
config 0 is 1 config 1 is 1
curr_config_rom_index is 3
config 0 is 1 config 1 is 1
curr_config_rom_index is 3
config 0 is 1 config 1 is 1
curr_config_rom_index is 3
config 0 is 1 config 1 is 1
curr_config_rom_index is 3
config 0 is 1 config 1 is 1
curr_config_rom_index is 3
config 0 is 1 config 1 is 1
curr_config_rom_index is 3
config 0 is 1 config 1 is 1
curr_config_rom_index is 3
config 0 is 1 config 1 is 1
curr_config_rom_index is 3
config 0 is 1 config 1 is 1
curr_config_rom_index is 3
config 0 is 1 config 1 is 1
curr_config_rom_index is 3
config 0 is 1 config 1 is 1
curr_config_rom_index is 3
config 0 is 1 config 1 is 1
curr_config_rom_index is 3
config 0 is 1 config 1 is 1
curr_config_rom_index is 3
config 0 is 1 config 1 is 1
curr_config_rom_index is 3
config 0 is 1 config 1 is 1
curr_config_rom_index is 3
config 0 is 1 config 1 is 1
curr_config_rom_index is 3
config 0 is 1 config 1 is 1
curr_config_rom_index is 3
config 0 is 1 config 1 is 1
curr_config_rom_index is 3
config 0 is 1 config 1 is 1
curr_config_rom_index is 3
config 0 is 1 config 1 is 1
curr_config_rom_index is 3
config 0 is 1 config 1 is 1
curr_config_rom_index is 3
config 0 is 1 config 1 is 1
curr_config_rom_index is 3
config 0 is 1 config 1 is 1
curr_config_rom_index is 3
config 0 is 1 config 1 is 1
curr_config_rom_index is 3
config 0 is 1 config 1 is 1
curr_config_rom_index is 3
config 0 is 1 config 1 is 1
curr_config_rom_index is 3
config 0 is 1 config 1 is 1
curr_config_rom_index is 3
config 0 is 1 config 1 is 1
curr_config_rom_index is 3
config 0 is 1 config 1 is 1
curr_config_rom_index is 3
config 0 is 1 config 1 is 1
curr_config_rom_index is 3
config 0 is 1 config 1 is 1
curr_config_rom_index is 3
config 0 is 1 config 1 is 1
curr_config_rom_index is 3
config 0 is 1 config 1 is 1
curr_config_rom_index is 3
config 0 is 1 config 1 is 1
curr_config_rom_index is 3
config 0 is 1 config 1 is 1
curr_config_rom_index is 3
config 0 is 1 config 1 is 1
curr_config_rom_index is 3
config 0 is 1 config 1 is 1
curr_config_rom_index is 3
config 0 is 1 config 1 is 1
curr_config_rom_index is 3
config 0 is 1 config 1 is 1
curr_config_rom_index is 3
config 0 is 1 config 1 is 1
curr_config_rom_index is 3
config 0 is 1 config 1 is 1
curr_config_rom_index is 3
config 0 is 1 config 1 is 1
curr_config_rom_index is 3
config 0 is 1 config 1 is 1
curr_config_rom_index is 3
config 0 is 1 config 1 is 1
curr_config_rom_index is 3
config 0 is 1 config 1 is 1
curr_config_rom_index is 3
config 0 is 1 config 1 is 1
curr_config_rom_index is 3
config 0 is 1 config 1 is 1
curr_config_rom_index is 3
config 0 is 1 config 1 is 1
curr_config_rom_index is 3
config 0 is 1 config 1 is 1
curr_config_rom_index is 3
config 0 is 1 config 1 is 1
curr_config_rom_index is 3
config 0 is 1 config 1 is 1
curr_config_rom_index is 3
config 0 is 1 config 1 is 1
curr_config_rom_index is 3
config 0 is 1 config 1 is 1
curr_config_rom_index is 3
config 0 is 1 config 1 is 1
curr_config_rom_index is 3
config 0 is 1 config 1 is 1
curr_config_rom_index is 3
config 0 is 1 config 1 is 1
curr_config_rom_index is 3
config 0 is 1 config 1 is 1
curr_config_rom_index is 3
config 0 is 1 config 1 is 1
curr_config_rom_index is 3
config 0 is 1 config 1 is 1
curr_config_rom_index is 3
config 0 is 1 config 1 is 1
curr_config_rom_index is 3
config 0 is 1 config 1 is 1
curr_config_rom_index is 3
config 0 is 1 config 1 is 1
curr_config_rom_index is 3
config 0 is 1 config 1 is 1
curr_config_rom_index is 3
config 0 is 1 config 1 is 1
curr_config_rom_index is 3
config 0 is 1 config 1 is 1
curr_config_rom_index is 3
config 0 is 1 config 1 is 1
curr_config_rom_index is 3
config 0 is 1 config 1 is 1
curr_config_rom_index is 3
config 0 is 1 config 1 is 1
curr_config_rom_index is 3
config 0 is 1 config 1 is 1
curr_config_rom_index is 3
config 0 is 1 config 1 is 1
curr_config_rom_index is 3
config 0 is 1 config 1 is 1
curr_config_rom_index is 3
config 0 is 1 config 1 is 1
curr_config_rom_index is 3
config 0 is 1 config 1 is 1
curr_config_rom_index is 3
config 0 is 1 config 1 is 1
curr_config_rom_index is 3
config 0 is 1 config 1 is 1
curr_config_rom_index is 3
config 0 is 1 config 1 is 1
curr_config_rom_index is 3
config 0 is 1 config 1 is 1
curr_config_rom_index is 3
config 0 is 1 config 1 is 1
curr_config_rom_index is 3
config 0 is 1 config 1 is 1
curr_config_rom_index is 3
config 0 is 1 config 1 is 1
curr_config_rom_index is 3
config 0 is 1 config 1 is 1
curr_config_rom_index is 3
config 0 is 1 config 1 is 1
curr_config_rom_index is 3
config 0 is 1 config 1 is 1
curr_config_rom_index is 3
config 0 is 1 config 1 is 1
curr_config_rom_index is 3
config 0 is 1 config 1 is 1
curr_config_rom_index is 3
config 0 is 1 config 1 is 1
curr_config_rom_index is 3
config 0 is 1 config 1 is 1
curr_config_rom_index is 3
config 0 is 1 config 1 is 1
curr_config_rom_index is 3
config 0 is 1 config 1 is 1
curr_config_rom_index is 3
config 0 is 1 config 1 is 1
curr_config_rom_index is 3
config 0 is 1 config 1 is 1
curr_config_rom_index is 3
config 0 is 1 config 1 is 1
curr_config_rom_index is 3
config 0 is 1 config 1 is 1
curr_config_rom_index is 3
config 0 is 1 config 1 is 1
curr_config_rom_index is 3
config 0 is 1 config 1 is 1
curr_config_rom_index is 3
config 0 is 1 config 1 is 1
curr_config_rom_index is 3
config 0 is 1 config 1 is 1
curr_config_rom_index is 3
config 0 is 1 config 1 is 1
curr_config_rom_index is 3
config 0 is 1 config 1 is 1
curr_config_rom_index is 3
config 0 is 1 config 1 is 1
curr_config_rom_index is 3
config 0 is 1 config 1 is 1
curr_config_rom_index is 3
config 0 is 1 config 1 is 1
curr_config_rom_index is 3
config 0 is 1 config 1 is 1
curr_config_rom_index is 3
config 0 is 1 config 1 is 1
curr_config_rom_index is 3
config 0 is 1 config 1 is 1
curr_config_rom_index is 3
config 0 is 1 config 1 is 1
curr_config_rom_index is 3
config 0 is 1 config 1 is 1
curr_config_rom_index is 3
config 0 is 1 config 1 is 1
curr_config_rom_index is 3
config 0 is 1 config 1 is 1
curr_config_rom_index is 3
config 0 is 1 config 1 is 1
curr_config_rom_index is 3
config 0 is 1 config 1 is 1
curr_config_rom_index is 3
config 0 is 1 config 1 is 1
curr_config_rom_index is 3
config 0 is 1 config 1 is 1
curr_config_rom_index is 3
config 0 is 1 config 1 is 1
curr_config_rom_index is 3
config 0 is 1 config 1 is 1
curr_config_rom_index is 3
config 0 is 1 config 1 is 1
curr_config_rom_index is 3
config 0 is 1 config 1 is 1
curr_config_rom_index is 3
config 0 is 1 config 1 is 1
curr_config_rom_index is 3
config 0 is 1 config 1 is 1
curr_config_rom_index is 3
config 0 is 1 config 1 is 1
curr_config_rom_index is 3
config 0 is 1 config 1 is 1
curr_config_rom_index is 3
config 0 is 1 config 1 is 1
curr_config_rom_index is 3
config 0 is 1 config 1 is 1
curr_config_rom_index is 3
config 0 is 1 config 1 is 1
curr_config_rom_index is 3
config 0 is 1 config 1 is 1
curr_config_rom_index is 3
config 0 is 1 config 1 is 1
curr_config_rom_index is 3
config 0 is 1 config 1 is 1
curr_config_rom_index is 3
config 0 is 1 config 1 is 1
curr_config_rom_index is 3
config 0 is 1 config 1 is 1
curr_config_rom_index is 3
config 0 is 1 config 1 is 1
curr_config_rom_index is 3
config 0 is 1 config 1 is 1
curr_config_rom_index is 3
config 0 is 1 config 1 is 1
curr_config_rom_index is 3
config 0 is 1 config 1 is 1
curr_config_rom_index is 3
config 0 is 1 config 1 is 1
curr_config_rom_index is 3
config 0 is 1 config 1 is 1
curr_config_rom_index is 3
config 0 is 1 config 1 is 1
curr_config_rom_index is 3
config 0 is 1 config 1 is 1
curr_config_rom_index is 3
config 0 is 1 config 1 is 1
curr_config_rom_index is 3
config 0 is 1 config 1 is 1
curr_config_rom_index is 3
config 0 is 1 config 1 is 1
curr_config_rom_index is 3
config 0 is 1 config 1 is 1
curr_config_rom_index is 3
config 0 is 1 config 1 is 1
curr_config_rom_index is 3
config 0 is 1 config 1 is 1
curr_config_rom_index is 3
config 0 is 1 config 1 is 1
curr_config_rom_index is 3
config 0 is 1 config 1 is 1
curr_config_rom_index is 3
config 0 is 1 config 1 is 1
curr_config_rom_index is 3
config 0 is 1 config 1 is 1
curr_config_rom_index is 3
config 0 is 1 config 1 is 1
curr_config_rom_index is 3
config 0 is 1 config 1 is 1
curr_config_rom_index is 3
config 0 is 1 config 1 is 1
curr_config_rom_index is 3
config 0 is 1 config 1 is 1
curr_config_rom_index is 3
config 0 is 1 config 1 is 1
curr_config_rom_index is 3
config 0 is 1 config 1 is 1
curr_config_rom_index is 3
config 0 is 1 config 1 is 1
curr_config_rom_index is 3
config 0 is 1 config 1 is 1
curr_config_rom_index is 3
config 0 is 1 config 1 is 1
curr_config_rom_index is 3
config 0 is 1 config 1 is 1
curr_config_rom_index is 3
config 0 is 1 config 1 is 1
curr_config_rom_index is 3
config 0 is 1 config 1 is 1
curr_config_rom_index is 3
config 0 is 1 config 1 is 1
curr_config_rom_index is 3
config 0 is 1 config 1 is 1
curr_config_rom_index is 3
config 0 is 1 config 1 is 1
curr_config_rom_index is 3
config 0 is 1 config 1 is 1
curr_config_rom_index is 3
config 0 is 1 config 1 is 1
curr_config_rom_index is 3
config 0 is 1 config 1 is 1
curr_config_rom_index is 3
config 0 is 1 config 1 is 1
curr_config_rom_index is 3
config 0 is 1 config 1 is 1
curr_config_rom_index is 3
config 0 is 1 config 1 is 1
curr_config_rom_index is 3
config 0 is 1 config 1 is 1
curr_config_rom_index is 3
config 0 is 1 config 1 is 1
curr_config_rom_index is 3
config 0 is 1 config 1 is 1
curr_config_rom_index is 3
config 0 is 1 config 1 is 1
curr_config_rom_index is 3
config 0 is 1 config 1 is 1
curr_config_rom_index is 3
config 0 is 1 config 1 is 1
curr_config_rom_index is 3
config 0 is 1 config 1 is 1
curr_config_rom_index is 3
config 0 is 1 config 1 is 1
curr_config_rom_index is 3
config 0 is 1 config 1 is 1
curr_config_rom_index is 3
config 0 is 1 config 1 is 1
curr_config_rom_index is 3
config 0 is 1 config 1 is 1
curr_config_rom_index is 3
config 0 is 1 config 1 is 1
curr_config_rom_index is 3
config 0 is 1 config 1 is 1
curr_config_rom_index is 3
config 0 is 1 config 1 is 1
curr_config_rom_index is 3
config 0 is 1 config 1 is 1
curr_config_rom_index is 3
config 0 is 1 config 1 is 1
curr_config_rom_index is 3
config 0 is 1 config 1 is 1
curr_config_rom_index is 3
config 0 is 1 config 1 is 1
curr_config_rom_index is 3
config 0 is 1 config 1 is 1
curr_config_rom_index is 3
config 0 is 1 config 1 is 1
curr_config_rom_index is 3
config 0 is 1 config 1 is 1
curr_config_rom_index is 3
config 0 is 1 config 1 is 1
curr_config_rom_index is 3
config 0 is 1 config 1 is 1
curr_config_rom_index is 3
config 0 is 1 config 1 is 1
curr_config_rom_index is 3
config 0 is 1 config 1 is 1
curr_config_rom_index is 3
config 0 is 1 config 1 is 1
curr_config_rom_index is 3
config 0 is 1 config 1 is 1
curr_config_rom_index is 3
config 0 is 1 config 1 is 1
curr_config_rom_index is 3
config 0 is 1 config 1 is 1
curr_config_rom_index is 3
config 0 is 1 config 1 is 1
curr_config_rom_index is 3
config 0 is 1 config 1 is 1
curr_config_rom_index is 3
config 0 is 1 config 1 is 1
curr_config_rom_index is 3
config 0 is 1 config 1 is 1
curr_config_rom_index is 3
config 0 is 1 config 1 is 1
curr_config_rom_index is 3
config 0 is 1 config 1 is 1
curr_config_rom_index is 3
config 0 is 1 config 1 is 1
curr_config_rom_index is 3
config 0 is 1 config 1 is 1
curr_config_rom_index is 3
config 0 is 1 config 1 is 1
curr_config_rom_index is 3
[...]
sim_total_loads                6374 # total number of loads executed
sim_total_stores          6969.0000 # total number of stores executed
sim_total_branches             8886 # total number of branches executed
config_rom_falu_access           63 # total number of branches executed
config_rom_ialu_access        41350 # total number of branches executed
config_rom_falu_miss              2 # total number of branches executed
config_rom_ialu_miss         146413 # total number of branches executed
sim_cycle                     71270 # total simulation time in cycles
sim_IPC                      0.5943 # instructions per cycle
sim_CPI                      1.6827 # cycles per instruction
sim_exec_BW                  0.6844 # total instructions (mis-spec + committed) per cycle
sim_IPB                      5.5817 # instruction per branch
IFQ_count                    140835 # cumulative IFQ occupancy
IFQ_fcount                    33087 # cumulative IFQ full count
ifq_occupancy                1.9761 # avg IFQ occupancy (insn's)
ifq_rate                     0.6844 # avg IFQ dispatch rate (insn/cycle)
ifq_latency                  2.8873 # avg IFQ occupant latency (cycle's)
ifq_full                     0.4642 # fraction of time (cycle's) IFQ was full
RUU_count                    567022 # cumulative RUU occupancy
RUU_fcount                    24982 # cumulative RUU full count
ruu_occupancy                7.9560 # avg RUU occupancy (insn's)
ruu_rate                     0.6844 # avg RUU dispatch rate (insn/cycle)
ruu_latency                 11.6248 # avg RUU occupant latency (cycle's)
ruu_full                     0.3505 # fraction of time (cycle's) RUU was full
LSQ_count                    137880 # cumulative LSQ occupancy
LSQ_fcount                     5285 # cumulative LSQ full count
lsq_occupancy                1.9346 # avg LSQ occupancy (insn's)
lsq_rate                     0.6844 # avg LSQ dispatch rate (insn/cycle)
lsq_latency                  2.8267 # avg LSQ occupant latency (cycle's)
lsq_full                     0.0742 # fraction of time (cycle's) LSQ was full
sim_slip                     717926 # total number of slip cycles
avg_sim_slip                16.9506 # the average slip between issue and retirement
bpred_bimod.lookups            9291 # total number of bpred lookups
bpred_bimod.updates            7588 # total number of updates
bpred_bimod.addr_hits          6487 # total number of address-predicted hits
bpred_bimod.dir_hits           6790 # total number of direction-predicted hits (includes addr-hits)
bpred_bimod.misses              798 # total number of misses
bpred_bimod.jr_hits             561 # total number of address-predicted hits for JR's
bpred_bimod.jr_seen             605 # total number of JR's seen
bpred_bimod.jr_non_ras_hits.PP            4 # total number of address-predicted hits for non-RAS JR's
bpred_bimod.jr_non_ras_seen.PP           19 # total number of non-RAS JR's seen
bpred_bimod.bpred_addr_rate    0.8549 # branch address-prediction rate (i.e., addr-hits/updates)
bpred_bimod.bpred_dir_rate    0.8948 # branch direction-prediction rate (i.e., all-hits/updates)
bpred_bimod.bpred_jr_rate    0.9273 # JR address-prediction rate (i.e., JR addr-hits/JRs seen)
bpred_bimod.bpred_jr_non_ras_rate.PP    0.2105 # non-RAS JR addr-pred rate (ie, non-RAS JR hits/JRs seen)
bpred_bimod.retstack_pushes          720 # total number of address pushed onto ret-addr stack
bpred_bimod.retstack_pops          709 # total number of address popped off of ret-addr stack
bpred_bimod.used_ras.PP          586 # total number of RAS predictions used
bpred_bimod.ras_hits.PP          557 # total number of RAS hits
bpred_bimod.ras_rate.PP    0.9505 # RAS prediction rate (i.e., RAS hits/used RAS)
il1.accesses                  52685 # total number of accesses
il1.hits                      49713 # total number of hits
il1.misses                     2972 # total number of misses
il1.replacements               2472 # total number of replacements
il1.writebacks                    0 # total number of writebacks
il1.invalidations                 0 # total number of invalidations
il1.miss_rate                0.0564 # miss rate (i.e., misses/ref)
il1.repl_rate                0.0469 # replacement rate (i.e., repls/ref)
il1.wb_rate                  0.0000 # writeback rate (i.e., wrbks/ref)
il1.inv_rate                 0.0000 # invalidation rate (i.e., invs/ref)
dl1.accesses                  11942 # total number of accesses
dl1.hits                      11463 # total number of hits
dl1.misses                      479 # total number of misses
dl1.replacements                 37 # total number of replacements
dl1.writebacks                   33 # total number of writebacks
dl1.invalidations                 0 # total number of invalidations
dl1.miss_rate                0.0401 # miss rate (i.e., misses/ref)
dl1.repl_rate                0.0031 # replacement rate (i.e., repls/ref)
dl1.wb_rate                  0.0028 # writeback rate (i.e., wrbks/ref)
dl1.inv_rate                 0.0000 # invalidation rate (i.e., invs/ref)
ul2.accesses                   3484 # total number of accesses
ul2.hits                       2631 # total number of hits
ul2.misses                      853 # total number of misses
ul2.replacements                  0 # total number of replacements
ul2.writebacks                    0 # total number of writebacks
ul2.invalidations                 0 # total number of invalidations
ul2.miss_rate                0.2448 # miss rate (i.e., misses/ref)
ul2.repl_rate                0.0000 # replacement rate (i.e., repls/ref)
ul2.wb_rate                  0.0000 # writeback rate (i.e., wrbks/ref)
ul2.inv_rate                 0.0000 # invalidation rate (i.e., invs/ref)
itlb.accesses                 52685 # total number of accesses
itlb.hits                     52665 # total number of hits
itlb.misses                      20 # total number of misses
itlb.replacements                 0 # total number of replacements
itlb.writebacks                   0 # total number of writebacks
itlb.invalidations                0 # total number of invalidations
itlb.miss_rate               0.0004 # miss rate (i.e., misses/ref)
itlb.repl_rate               0.0000 # replacement rate (i.e., repls/ref)
itlb.wb_rate                 0.0000 # writeback rate (i.e., wrbks/ref)
itlb.inv_rate                0.0000 # invalidation rate (i.e., invs/ref)
dtlb.accesses                 11943 # total number of accesses
dtlb.hits                     11933 # total number of hits
dtlb.misses                      10 # total number of misses
dtlb.replacements                 0 # total number of replacements
dtlb.writebacks                   0 # total number of writebacks
dtlb.invalidations                0 # total number of invalidations
dtlb.miss_rate               0.0008 # miss rate (i.e., misses/ref)
dtlb.repl_rate               0.0000 # replacement rate (i.e., repls/ref)
dtlb.wb_rate                 0.0000 # writeback rate (i.e., wrbks/ref)
dtlb.inv_rate                0.0000 # invalidation rate (i.e., invs/ref)
rename_power             29788.4002 # total power usage of rename unit
bpred_power             322363.2182 # total power usage of bpred unit
ialu_access                  0.0000 # integer alu accessed 
falu_access                  0.0000 # floating alu accessed
window_power            157101.8450 # total power usage of instruction window
lsq_power               167675.8354 # total power usage of load/store queue
regfile_power           254610.0869 # total power usage of arch. regfile
icache_power            176531.6375 # total power usage of icache
dcache_power            867342.5400 # total power usage of dcache
dcache2_power           299982.2323 # total power usage of dcache2
alu_power               337484.3927 # total power usage of alu
falu_power              254452.5183 # total power usage of falu
resultbus_power          63082.4298 # total power usage of resultbus
clock_power            1300468.9812 # total power usage of clock
avg_rename_power             0.4180 # avg power usage of rename unit
avg_bpred_power              4.5231 # avg power usage of bpred unit
avg_window_power             2.2043 # avg power usage of instruction window
avg_lsq_power                2.3527 # avg power usage of lsq
avg_regfile_power            3.5725 # avg power usage of arch. regfile
avg_icache_power             2.4769 # avg power usage of icache
avg_dcache_power            12.1698 # avg power usage of dcache
avg_dcache2_power            4.2091 # avg power usage of dcache2
avg_alu_power                4.7353 # avg power usage of alu
avg_falu_power               3.5703 # avg power usage of falu
avg_resultbus_power          0.8851 # avg power usage of resultbus
avg_clock_power             18.2471 # avg power usage of clock
fetch_stage_power       498894.8558 # total power usage of fetch stage
dispatch_stage_power     29788.4002 # total power usage of dispatch stage
issue_stage_power      1892669.2752 # total power usage of issue stage
avg_fetch_power              7.0001 # average power of fetch unit per cycle
avg_dispatch_power           0.4180 # average power of dispatch unit per cycle
avg_issue_power             26.5563 # average power of issue unit per cycle
total_power            3976431.5994 # total power per cycle
avg_total_power_cycle       55.7939 # average total power per cycle
avg_total_power_cycle_nofp_nod2      48.0145 # average total power per cycle
avg_total_power_insn        81.5227 # average total power per insn
avg_total_power_insn_nofp_nod2      70.1560 # average total power per insn
rename_power_cc1         11326.0288 # total power usage of rename unit_cc1
bpred_power_cc1          32632.0954 # total power usage of bpred unit_cc1
window_power_cc1         87900.3348 # total power usage of instruction window_cc1
lsq_power_cc1            12404.2641 # total power usage of lsq_cc1
regfile_power_cc1       105175.5174 # total power usage of arch. regfile_cc1
icache_power_cc1         73681.5858 # total power usage of icache_cc1
dcache_power_cc1        138808.8819 # total power usage of dcache_cc1
dcache2_power_cc1        14508.7520 # total power usage of dcache2_cc1
alu_power_cc1            47555.5414 # total power usage of alu_cc1
resultbus_power_cc1      25268.2614 # total power usage of resultbus_cc1
clock_power_cc1         283545.0251 # total power usage of clock_cc1
avg_rename_power_cc1         0.1589 # avg power usage of rename unit_cc1
avg_bpred_power_cc1          0.4579 # avg power usage of bpred unit_cc1
avg_window_power_cc1         1.2333 # avg power usage of instruction window_cc1
avg_lsq_power_cc1            0.1740 # avg power usage of lsq_cc1
avg_regfile_power_cc1        1.4757 # avg power usage of arch. regfile_cc1
avg_icache_power_cc1         1.0338 # avg power usage of icache_cc1
avg_dcache_power_cc1         1.9476 # avg power usage of dcache_cc1
avg_dcache2_power_cc1        0.2036 # avg power usage of dcache2_cc1
avg_alu_power_cc1            0.6673 # avg power usage of alu_cc1
avg_resultbus_power_cc1       0.3545 # avg power usage of resultbus_cc1
avg_clock_power_cc1          3.9785 # avg power usage of clock_cc1
fetch_stage_power_cc1   106313.6812 # total power usage of fetch stage_cc1
dispatch_stage_power_cc1   11326.0288 # total power usage of dispatch stage_cc1
issue_stage_power_cc1   326446.0356 # total power usage of issue stage_cc1
avg_fetch_power_cc1          1.4917 # average power of fetch unit per cycle_cc1
avg_dispatch_power_cc1       0.1589 # average power of dispatch unit per cycle_cc1
avg_issue_power_cc1          4.5804 # average power of issue unit per cycle_cc1
total_power_cycle_cc1   832806.2881 # total power per cycle_cc1
avg_total_power_cycle_cc1      11.6852 # average total power per cycle_cc1
avg_total_power_insn_cc1      17.0737 # average total power per insn_cc1
rename_power_cc2          5011.0927 # total power usage of rename unit_cc2
bpred_power_cc2          17160.7415 # total power usage of bpred unit_cc2
window_power_cc2         31834.1346 # total power usage of instruction window_cc2
lsq_power_cc2             3101.2716 # total power usage of lsq_cc2
regfile_power_cc2        14800.2278 # total power usage of arch. regfile_cc2
icache_power_cc2         73681.5858 # total power usage of icache_cc2
dcache_power_cc2         36332.9754 # total power usage of dcache_cc2
dcache2_power_cc2         3666.1221 # total power usage of dcache2_cc2
alu_power_cc2            48399.0250 # total power usage of alu_cc2
resultbus_power_cc2       7221.6616 # total power usage of resultbus_cc2
clock_power_cc2         119847.0117 # total power usage of clock_cc2
avg_rename_power_cc2         0.0703 # avg power usage of rename unit_cc2
avg_bpred_power_cc2          0.2408 # avg power usage of bpred unit_cc2
avg_window_power_cc2         0.4467 # avg power usage of instruction window_cc2
avg_lsq_power_cc2            0.0435 # avg power usage of instruction lsq_cc2
avg_regfile_power_cc2        0.2077 # avg power usage of arch. regfile_cc2
avg_icache_power_cc2         1.0338 # avg power usage of icache_cc2
avg_dcache_power_cc2         0.5098 # avg power usage of dcache_cc2
avg_dcache2_power_cc2        0.0514 # avg power usage of dcache2_cc2
avg_alu_power_cc2            0.6791 # avg power usage of alu_cc2
avg_resultbus_power_cc2       0.1013 # avg power usage of resultbus_cc2
avg_clock_power_cc2          1.6816 # avg power usage of clock_cc2
fetch_stage_power_cc2    90842.3274 # total power usage of fetch stage_cc2
dispatch_stage_power_cc2    5011.0927 # total power usage of dispatch stage_cc2
issue_stage_power_cc2   130555.1903 # total power usage of issue stage_cc2
avg_fetch_power_cc2          1.2746 # average power of fetch unit per cycle_cc2
avg_dispatch_power_cc2       0.0703 # average power of dispatch unit per cycle_cc2
avg_issue_power_cc2          1.8318 # average power of issue unit per cycle_cc2
total_power_cycle_cc2   361055.8499 # total power per cycle_cc2
avg_total_power_cycle_cc2       5.0660 # average total power per cycle_cc2
avg_total_power_insn_cc2       7.4022 # average total power per insn_cc2
rename_power_cc3          6857.3299 # total power usage of rename unit_cc3
bpred_power_cc3          46142.2216 # total power usage of bpred unit_cc3
window_power_cc3         37505.5775 # total power usage of instruction window_cc3
lsq_power_cc3            18463.4650 # total power usage of lsq_cc3
regfile_power_cc3        27782.9487 # total power usage of arch. regfile_cc3
icache_power_cc3         83966.5910 # total power usage of icache_cc3
dcache_power_cc3        109186.3412 # total power usage of dcache_cc3
dcache2_power_cc3        32213.4702 # total power usage of dcache2_cc3
alu_power_cc3            77391.9102 # total power usage of alu_cc3
resultbus_power_cc3      10403.5758 # total power usage of resultbus_cc3
clock_power_cc3         219710.9010 # total power usage of clock_cc3
avg_rename_power_cc3         0.0962 # avg power usage of rename unit_cc3
avg_bpred_power_cc3          0.6474 # avg power usage of bpred unit_cc3
avg_window_power_cc3         0.5262 # avg power usage of instruction window_cc3
avg_lsq_power_cc3            0.2591 # avg power usage of instruction lsq_cc3
avg_regfile_power_cc3        0.3898 # avg power usage of arch. regfile_cc3
avg_icache_power_cc3         1.1781 # avg power usage of icache_cc3
avg_dcache_power_cc3         1.5320 # avg power usage of dcache_cc3
avg_dcache2_power_cc3        0.4520 # avg power usage of dcache2_cc3
avg_alu_power_cc3            1.0859 # avg power usage of alu_cc3
avg_resultbus_power_cc3       0.1460 # avg power usage of resultbus_cc3
avg_clock_power_cc3          3.0828 # avg power usage of clock_cc3
fetch_stage_power_cc3   130108.8126 # total power usage of fetch stage_cc3
dispatch_stage_power_cc3    6857.3299 # total power usage of dispatch stage_cc3
issue_stage_power_cc3   285164.3398 # total power usage of issue stage_cc3
avg_fetch_power_cc3          1.8256 # average power of fetch unit per cycle_cc3
avg_dispatch_power_cc3       0.0962 # average power of dispatch unit per cycle_cc3
avg_issue_power_cc3          4.0012 # average power of issue unit per cycle_cc3
total_power_cycle_cc3   669624.3320 # total power per cycle_cc3
avg_total_power_cycle_cc3       9.3956 # average total power per cycle_cc3
avg_total_power_insn_cc3      13.7283 # average total power per insn_cc3
total_rename_access           47957 # total number accesses of rename unit
total_bpred_access             7588 # total number accesses of bpred unit
total_window_access          152116 # total number accesses of instruction window
total_lsq_access              11965 # total number accesses of load/store queue
total_regfile_access          59261 # total number accesses of arch. regfile
total_icache_access           53625 # total number accesses of icache
total_dcache_access           11942 # total number accesses of dcache
total_dcache2_access           3484 # total number accesses of dcache2
total_alu_access              41413 # total number accesses of alu
total_resultbus_access        40363 # total number accesses of resultbus
avg_rename_access            0.6729 # avg number accesses of rename unit
avg_bpred_access             0.1065 # avg number accesses of bpred unit
avg_window_access            2.1344 # avg number accesses of instruction window
avg_lsq_access               0.1679 # avg number accesses of lsq
avg_regfile_access           0.8315 # avg number accesses of arch. regfile
avg_icache_access            0.7524 # avg number accesses of icache
avg_dcache_access            0.1676 # avg number accesses of dcache
avg_dcache2_access           0.0489 # avg number accesses of dcache2
avg_alu_access               0.5811 # avg number accesses of alu
avg_resultbus_access         0.5663 # avg number accesses of resultbus
max_rename_access                 4 # max number accesses of rename unit
max_bpred_access                  3 # max number accesses of bpred unit
max_window_access                11 # max number accesses of instruction window
max_lsq_access                    3 # max number accesses of load/store queue
max_regfile_access                9 # max number accesses of arch. regfile
max_icache_access                 4 # max number accesses of icache
max_dcache_access                 3 # max number accesses of dcache
max_dcache2_access                3 # max number accesses of dcache2
max_alu_access                    2 # max number accesses of alu
max_resultbus_access              4 # max number accesses of resultbus
max_cycle_power_cc1         34.7146 # maximum cycle power usage of cc1
max_cycle_power_cc2         20.8167 # maximum cycle power usage of cc2
max_cycle_power_cc3         22.6423 # maximum cycle power usage of cc3
sim_invalid_addrs                 0 # total non-speculative bogus addresses seen (debug var)
ld_text_base             0x00400000 # program text (code) segment base
ld_text_size                  82000 # program text (code) size in bytes
ld_data_base             0x10000000 # program initialized data segment base
ld_data_size                  12288 # program init'ed `.data' and uninit'ed `.bss' size in bytes
ld_stack_base            0x7fffc000 # program stack segment base (highest address in stack)
ld_stack_size                 16384 # program initial stack size
ld_prog_entry            0x00400140 # program entry point (initial PC)
ld_environ_base          0x7fff8000 # program environment base address address
ld_target_big_endian              0 # target executable endian-ness, non-zero if big endian
mem.page_count                   31 # total number of pages allocated
mem.page_mem                   124k # total size of memory pages allocated
mem.ptab_misses                  35 # total first level page table misses
mem.ptab_accesses            807586 # total page table accesses
mem.ptab_miss_rate           0.0000 # first level page table miss rate

